geometry optimzed in LAMMPS
_audit_creation_date              2020-11-30 
_audit_creation_method            'lammps2cif' 
_symmetry_space_group_name_H-M    'P1' 
_symmetry_Int_Tables_number       1 
_symmetry_cell_setting            triclinic 
loop_ 
_symmetry_equiv_pos_as_xyz 
  x,y,z 
_cell_length_a                    41.15257846 
_cell_length_b                    40.64709838962032 
_cell_length_c                    25.240392900204764 
_cell_angle_alpha                 89.58118399269486 
_cell_angle_beta                  90.10200912940681 
_cell_angle_gamma                 89.91195665066493 
loop_ 
_atom_site_label 
_atom_site_type_symbol 
_atom_site_fract_x 
_atom_site_fract_y 
_atom_site_fract_z 
_atom_site_charge 
O1          O  0.35678009  0.41063445  0.68515017    -0.73800
O2          O  0.33753856  0.33824173  0.77970432    -0.73800
O3          O  0.33737548  0.40508554  0.78646045    -0.73800
O4          O  0.35659894  0.34186029  0.67783635    -0.73900
O5          O  0.40875585  0.34118514  0.70200350    -0.73800
O6          O  0.38959993  0.40399738  0.81041312    -0.73800
O7          O  0.38972997  0.33639281  0.80360614    -0.73800
O8          O  0.40892564  0.40845147  0.70912973    -0.73800
Ni9        Ni  0.34527054  0.37397226  0.73101817     1.25400
Ni10       Ni  0.40105203  0.37244060  0.75723231     1.25400
C11         C  0.38567788  0.42258878  0.68396109     0.88400
C12         C  0.36073283  0.32497386  0.80625910     0.88400
C13         C  0.36079196  0.41580414  0.81485547     0.88400
C14         C  0.38538909  0.32984992  0.67402929     0.88600
O15         O  0.15657916  0.40871557  0.79676007    -0.73800
O16         O  0.13961366  0.34670324  0.68748220    -0.73800
O17         O  0.13979244  0.41390323  0.69460272    -0.73800
O18         O  0.15675313  0.34238465  0.79054202    -0.73900
O19         O  0.10409591  0.34167227  0.81169931    -0.73800
O20         O  0.08690802  0.41191746  0.71415517    -0.73800
O21         O  0.08695111  0.34542139  0.70851535    -0.73800
O22         O  0.10374679  0.40910465  0.81681567    -0.73800
Ni23       Ni  0.15002186  0.37790841  0.74134693     1.25400
Ni24       Ni  0.09355656  0.37694850  0.76377424     1.25400
C25         C  0.13267637  0.42010891  0.82317893     0.88400
C26         C  0.11092000  0.33510378  0.68102831     0.88400
C27         C  0.11084978  0.42527249  0.69011202     0.88400
C28         C  0.13293141  0.32994037  0.81618282     0.88600
O29         O  0.46926074  0.21707908  0.45374248    -0.73800
O30         O  0.03563097  0.23588819  0.55470478    -0.73800
O31         O  0.46980438  0.23512400  0.55579375    -0.73800
O32         O  0.03441645  0.21859100  0.45269310    -0.73900
O33         O  0.03546675  0.27184428  0.43106260    -0.73800
O34         O  0.46868482  0.28803310  0.53176790    -0.73800
O35         O  0.03386835  0.28920652  0.53346099    -0.73800
O36         O  0.46842445  0.26990199  0.42952873    -0.73800
Ni37       Ni  0.50312488  0.22454661  0.50553000     1.25400
Ni38       Ni  0.50234202  0.28113754  0.47984011     1.25400
C39         C  0.45643117  0.24078130  0.42702287     0.88400
C40         C  0.04667868  0.26524296  0.55942924     0.88400
C41         C  0.45727287  0.26393106  0.55895853     0.88400
C42         C  0.04748988  0.24270556  0.42781579     0.88600
C43         C  0.37712394  0.24607603  0.61815883     0.80900
N44         N  0.40596771  0.24288447  0.59283343    -0.77400
C45         C  0.42749150  0.26813734  0.59063495     0.83300
N46         N  0.42026207  0.29702164  0.61500541    -0.77400
C47         C  0.39138651  0.30063163  0.64086694     0.83400
N48         N  0.36984822  0.27510771  0.64215665    -0.79100
C49         C  0.12912528  0.25641832  0.61851026     0.80900
N50         N  0.10098064  0.24929767  0.59238828    -0.77400
C51         C  0.07581217  0.27135107  0.59244986     0.83300
N52         N  0.07881229  0.30007633  0.61985846    -0.77400
C53         C  0.10699462  0.30680874  0.64601728     0.83400
N54         N  0.13176475  0.28509496  0.64455729    -0.79100
O55         O  0.46185522  0.02133679  0.55821830    -0.73800
O56         O  0.02772462  0.03589693  0.45195249    -0.73800
O57         O  0.46692053  0.03666699  0.45445099    -0.73800
O58         O  0.02765559  0.02198787  0.55634683    -0.73900
O59         O  0.03331356  0.46870263  0.54574375    -0.73800
O60         O  0.46367246  0.48312268  0.43926805    -0.73800
O61         O  0.03455424  0.48309793  0.44144224    -0.73800
O62         O  0.46469615  0.46819928  0.54346442    -0.73800
Ni63       Ni  0.49718905  0.03131263  0.51104223     1.25400
Ni64       Ni  0.49706913  0.47348829  0.48994453     1.25400
C65         C  0.45358054  0.49298252  0.56846955     0.88400
C66         C  0.03943965  0.01093861  0.42803111     0.88400
C67         C  0.45656475  0.01180292  0.42893042     0.88400
C68         C  0.04464081  0.49351612  0.57060908     0.88600
C69         C  0.11892508  0.51131693  0.64633186     0.80900
N70         N  0.08882489  0.01453378  0.60233609    -0.77400
C71         C  0.07195605  0.48923415  0.60707703     0.83300
N72         N  0.07838538  0.45957535  0.62996204    -0.77400
C73         C  0.10531098  0.45574495  0.66064334     0.83400
N74         N  0.12555727  0.48157285  0.66861643    -0.79100
C75         C  0.38035951  0.51111705  0.64641131     0.80900
N76         N  0.37271694  0.48092247  0.66682473    -0.77400
C77         C  0.39209310  0.45438120  0.65688093     0.83300
N78         N  0.41907718  0.45831715  0.62622427    -0.77400
C79         C  0.42640771  0.48842735  0.60534114     0.83400
N80         N  0.40700371  0.51448201  0.61563952    -0.79100
O81         O  0.28237442  0.21164393  0.03101671    -0.73800
O82         O  0.21083987  0.22867189  0.93628967    -0.73800
O83         O  0.27780600  0.22851006  0.92783466    -0.73800
O84         O  0.21668264  0.21241695  0.03961738    -0.73900
O85         O  0.21840455  0.26596441  0.05862520    -0.73800
O86         O  0.27853279  0.28210131  0.94656926    -0.73800
O87         O  0.21278867  0.28212981  0.95546906    -0.73800
O88         O  0.28461235  0.26525061  0.04922715    -0.73800
Ni89       Ni  0.24684728  0.21841636  0.98270638     1.25400
Ni90       Ni  0.24858978  0.27571062  0.00336630     1.25400
C91         C  0.29585369  0.23591629  0.05431893     0.88400
C92         C  0.19948413  0.25795994  0.93143633     0.88400
C93         C  0.28927883  0.25757687  0.92057847     0.88400
C94         C  0.20686369  0.23708910  0.06637060     0.88600
C95         C  0.37106365  0.24295898  0.86930726     0.80900
N96         N  0.34148690  0.23844179  0.89122823    -0.77400
C97         C  0.31826621  0.26186381  0.88768811     0.83300
N98         N  0.32467232  0.29050711  0.86139427    -0.77400
C99         C  0.35427354  0.29518304  0.83822238     0.83400
N100        N  0.37758212  0.27142253  0.84270736    -0.79100
C101        C  0.11768652  0.24770088  0.87125383     0.80900
N102        N  0.14584411  0.24097389  0.89776313    -0.77400
C103        C  0.16999473  0.26397789  0.89941722     0.83300
N104        N  0.16589539  0.29341520  0.87393359    -0.77400
C105        C  0.13771795  0.29989995  0.84757820     0.83400
N106        N  0.11392747  0.27709295  0.84675792    -0.79100
O107        O  0.41435935  0.15851334  0.28258038    -0.73800
O108        O  0.39656382  0.09264740  0.17832116    -0.73800
O109        O  0.39657499  0.16018093  0.17931751    -0.73800
O110        O  0.41411391  0.09158959  0.28091177    -0.73900
O111        O  0.36143992  0.09044249  0.30181661    -0.73800
O112        O  0.34397691  0.15918560  0.20060260    -0.73800
O113        O  0.34391320  0.09252359  0.19951793    -0.73800
O114        O  0.36172388  0.15802229  0.30371244    -0.73800
Ni115      Ni  0.40726568  0.12578225  0.22930753     1.25400
Ni116      Ni  0.35095341  0.12513423  0.25245847     1.25400
C117        C  0.39047418  0.16970212  0.30936821     0.88400
C118        C  0.36779691  0.08089334  0.17332911     0.88400
C119        C  0.36753011  0.17126279  0.17378290     0.88400
C120        C  0.39032100  0.07887667  0.30639417     0.88600
O121        O  0.21740511  0.46139357  0.96006256    -0.73800
O122        O  0.28180954  0.47944480  0.06582351    -0.73800
O123        O  0.21402798  0.47917621  0.06181408    -0.73800
O124        O  0.28347877  0.46153534  0.96292046    -0.73900
O125        O  0.28224001  0.01331489  0.94211942    -0.73800
O126        O  0.21832772  0.03162137  0.04848349    -0.73800
O127        O  0.28499372  0.03101553  0.04386589    -0.73800
O128        O  0.21526932  0.01387755  0.94724262    -0.73800
Ni129      Ni  0.24928092  0.46850935  0.01378690     1.25400
Ni130      Ni  0.25024599  0.02424164  0.99456024     1.25400
C131        C  0.20556917  0.48562433  0.93387260     0.88400
C132        C  0.29835325  0.00706651  0.06893940     0.88400
C133        C  0.20555581  0.00778435  0.07449440     0.88400
C134        C  0.29553785  0.48541218  0.93597788     0.88600
C135        C  0.12187680  0.49962212  0.89006282     0.80900
N136        N  0.15193319  0.50435858  0.91019899    -0.77400
C137        C  0.17528530  0.48117709  0.90493129     0.83300
N138        N  0.16858852  0.45285153  0.87902672    -0.77400
C139        C  0.13850562  0.44802749  0.85805141     0.83400
N140        N  0.11514021  0.47143488  0.86365980    -0.79100
C141        C  0.37520420  0.49749668  0.87064778     0.80900
N142        N  0.34541158  0.00201051  0.89970844    -0.77400
C143        C  0.32408282  0.47964979  0.90180386     0.83300
N144        N  0.32819623  0.45048816  0.87594867    -0.77400
C145        C  0.35599291  0.44496031  0.84797052     0.83400
N146        N  0.37920581  0.46842255  0.84598018    -0.79100
O147        O  0.10881651  0.16133403  0.19035786    -0.73800
O148        O  0.08835197  0.09114425  0.28677580    -0.73800
O149        O  0.08978542  0.15787329  0.29183369    -0.73800
O150        O  0.10810609  0.09382102  0.18521695    -0.73900
O151        O  0.16037171  0.09217879  0.20902956    -0.73800
O152        O  0.14198720  0.15540989  0.31588787    -0.73800
O153        O  0.14058186  0.08793446  0.31028914    -0.73800
O154        O  0.16101745  0.15880945  0.21428628    -0.73800
Ni155      Ni  0.09692966  0.12606761  0.23745271     1.25400
Ni156      Ni  0.15280085  0.12353307  0.26349912     1.25400
C157        C  0.13795126  0.17228485  0.18772808     0.88400
C158        C  0.11125615  0.07731676  0.31305147     0.88400
C159        C  0.11359968  0.16813999  0.31978260     0.88400
C160        C  0.13681140  0.08166138  0.18096979     0.88600
C161        C  0.11948632  0.00240307  0.11965879     0.80900
N162        N  0.14913357  0.99335448  0.09999496    -0.77400
C163        C  0.17508795  0.01432124  0.10407371     0.83300
N164        N  0.17107903  0.04390251  0.12849692    -0.77400
C165        C  0.14150952  0.05258858  0.14806361     0.83400
N166        N  0.11616069  0.03188868  0.14311923    -0.79100
C167        C  0.38494183  0.00118896  0.11214196     0.80900
N168        N  0.35517759  0.99242472  0.09253956    -0.77400
C169        C  0.32932845  0.01351139  0.09706099     0.83300
N170        N  0.33353311  0.04298158  0.12157534    -0.77400
C171        C  0.36313425  0.05145578  0.14114406     0.83400
N172        N  0.38844388  0.03055361  0.13612208    -0.79100
C173        C  0.37973721  0.24901559  0.09982167     0.80900
N174        N  0.35045680  0.25322135  0.07633573    -0.77400
C175        C  0.32645573  0.23087119  0.08331597     0.83300
N176        N  0.33195978  0.20368632  0.11402821    -0.77400
C177        C  0.36148315  0.19932712  0.13789524     0.83400
N178        N  0.38524970  0.22210531  0.13069504    -0.79100
C179        C  0.12978742  0.25593010  0.13088317     0.80900
N180        N  0.15783380  0.25875792  0.10377448    -0.77400
C181        C  0.17928307  0.23360100  0.10210115     0.83300
N182        N  0.17275390  0.20501400  0.12831771    -0.77400
C183        C  0.14458163  0.20199467  0.15619808     0.83400
N184        N  0.12297780  0.22739882  0.15698132    -0.79100
C185        C  0.11748210  0.99233091  0.36462211     0.80900
N186        N  0.08923827  0.98923472  0.39138736    -0.77400
C187        C  0.06819408  0.01478317  0.39447092     0.83300
N188        N  0.07552768  0.04393918  0.37038463    -0.77400
C189        C  0.10407540  0.04729248  0.34357586     0.83400
N190        N  0.12498730  0.02146504  0.34098120    -0.79100
C191        C  0.38003986  0.99492972  0.36045546     0.80900
N192        N  0.40752269  0.99122014  0.38909967    -0.77400
C193        C  0.42928539  0.01595703  0.39255472     0.83300
N194        N  0.42350570  0.04500673  0.36703980    -0.77400
C195        C  0.39579450  0.04897325  0.33810944     0.83400
N196        N  0.37402623  0.02390749  0.33509306    -0.79100
C197        C  0.37141085  0.24767603  0.37477509     0.80900
N198        N  0.40022392  0.25557115  0.39877428    -0.77400
C199        C  0.42631270  0.23450976  0.39567255     0.83300
N200        N  0.42334271  0.20599780  0.36766565    -0.77400
C201        C  0.39466772  0.19851721  0.34350121     0.83400
N202        N  0.36917554  0.21926317  0.34774307    -0.79100
C203        C  0.13360573  0.24683044  0.38133428     0.80900
N204        N  0.13585924  0.21748473  0.35700195    -0.77400
C205        C  0.10990879  0.19746081  0.35234659     0.83300
N206        N  0.08085646  0.20670171  0.37284132    -0.77400
C207        C  0.07782517  0.23608317  0.39805658     0.83400
N208        N  0.10434811  0.25640553  0.40211660    -0.79100
N209        N  0.49534801  0.42668943  0.09717598    -0.35900
N210        N  0.44967256  0.37249783  0.10869029    -0.56500
N211        N  0.50364906  0.32621233  0.11503746    -0.35900
N212        N  0.04856704  0.37003568  0.12644970    -0.56500
C213        C  0.46726283  0.44381304  0.10218633     0.27600
C214        C  0.02656746  0.43677042  0.09360147     0.27600
C215        C  0.47900162  0.30841774  0.13593369     0.27600
C216        C  0.02368808  0.30254761  0.14242362     0.27600
C217        C  0.42829586  0.39673652  0.09685064     0.36300
C218        C  0.43274068  0.34403292  0.10888146     0.36300
C219        C  0.06773454  0.39699525  0.12720915     0.36300
C220        C  0.06622611  0.34531494  0.14824712     0.36300
C221        C  0.47454846  0.47673014  0.11049460    -0.21200
C222        C  0.01695003  0.46327189  0.06235226    -0.21200
C223        C  0.49151726  0.28299561  0.16675799    -0.21200
C224        C  0.01378461  0.27091638  0.12999866    -0.21200
C225        C  0.39749904  0.38366132  0.09007690    -0.22300
C226        C  0.40022849  0.35041127  0.09807961    -0.22300
C227        C  0.09765367  0.38935903  0.14949976    -0.22300
C228        C  0.09659221  0.35666450  0.16322939    -0.22300
C229        C  0.43535231  0.43073786  0.09758374    -0.17600
C230        C  0.05932711  0.42784439  0.10503830    -0.17600
C231        C  0.05611734  0.31210949  0.15040918    -0.17600
C232        C  0.44575736  0.31314148  0.12443514    -0.17600
H233        H  0.45789866  0.49714624  0.11447341     0.15300
H234        H  0.03246255  0.48031743  0.04114970     0.15300
H235        H  0.47819965  0.26438257  0.18848948     0.15300
H236        H  0.02897434  0.24968206  0.12260750     0.15300
H237        H  0.37507717  0.39677237  0.08219407     0.13600
H238        H  0.38005559  0.33342895  0.09811736     0.13600
H239        H  0.11810759  0.40564906  0.15537581     0.13600
H240        H  0.11609881  0.34278685  0.18159411     0.13600
H241        H  0.49745714  0.40203000  0.08774023     0.26800
H242        H  0.50157423  0.34527146  0.08744958     0.26800
N243        N  0.25021878  0.42581093  0.32442624    -0.35900
N244        N  0.20141808  0.37748138  0.35531893    -0.56500
N245        N  0.25220306  0.32795751  0.37428226    -0.35900
N246        N  0.30111759  0.37866112  0.35331080    -0.56500
C247        C  0.22364668  0.44504367  0.32955168     0.27600
C248        C  0.27626858  0.44577030  0.32837615     0.27600
C249        C  0.22582018  0.31225352  0.39459086     0.27600
C250        C  0.27933055  0.31278395  0.39328020     0.27600
C251        C  0.18231404  0.40091777  0.33304527     0.36300
C252        C  0.18293467  0.35015038  0.35922294     0.36300
C253        C  0.31917875  0.40285521  0.33098681     0.36300
C254        C  0.32068667  0.35198658  0.35717991     0.36300
C255        C  0.23290569  0.47756165  0.33623638    -0.21200
C256        C  0.26616613  0.47802565  0.33544745    -0.21200
C257        C  0.23636042  0.28630319  0.42626278    -0.21200
C258        C  0.27000488  0.28661644  0.42539535    -0.21200
C259        C  0.15172776  0.38845643  0.32245181    -0.22300
C260        C  0.15205729  0.35631087  0.33916262    -0.22300
C261        C  0.35024587  0.39154727  0.32054966    -0.22300
C262        C  0.35124624  0.35936770  0.33718719    -0.22300
C263        C  0.19126785  0.43420585  0.32687133    -0.17600
C264        C  0.30889036  0.43584934  0.32448531    -0.17600
C265        C  0.31215011  0.32169763  0.38144648    -0.17600
C266        C  0.19260708  0.32046584  0.38417042    -0.17600
H267        H  0.21737603  0.49879255  0.34157000     0.15300
H268        H  0.28115581  0.49968255  0.34004441     0.15300
H269        H  0.22140841  0.26905201  0.44811258     0.15300
H270        H  0.28577183  0.26966865  0.44649602     0.15300
H271        H  0.13120192  0.40132228  0.30515512     0.13600
H272        H  0.13176483  0.33945788  0.33703608     0.13600
H273        H  0.37022185  0.40520614  0.30335358     0.13600
H274        H  0.37219276  0.34330301  0.33499011     0.13600
H275        H  0.25055420  0.40078787  0.31635243     0.26800
H276        H  0.25169686  0.34729723  0.34728427     0.26800
N277        N  0.19719479  0.12323967  0.63672269    -0.35900
N278        N  0.24457040  0.17600904  0.63146864    -0.56500
N279        N  0.29683708  0.12846600  0.65215135    -0.35900
N280        N  0.24815274  0.07689252  0.66805059    -0.56500
C281        C  0.17778227  0.15008163  0.63609938     0.27600
C282        C  0.17980611  0.09844412  0.65849874     0.27600
C283        C  0.31305769  0.15716912  0.65907337     0.27600
C284        C  0.31512219  0.10394569  0.67355546     0.27600
C285        C  0.21868126  0.19164385  0.60951141     0.36300
C286        C  0.27077546  0.19529648  0.62237263     0.36300
C287        C  0.22294443  0.05595660  0.66232198     0.36300
C288        C  0.27522254  0.05811170  0.66730617     0.36300
C289        C  0.14781797  0.14230706  0.65787272    -0.21200
C290        C  0.14920069  0.10973632  0.67245879    -0.21200
C291        C  0.34213515  0.15062728  0.68518108    -0.21200
C292        C  0.34356604  0.11705134  0.69377350    -0.21200
C293        C  0.22858014  0.22088873  0.58604846    -0.22300
C294        C  0.26143902  0.22341438  0.59482223    -0.22300
C295        C  0.23397749  0.02382727  0.65857045    -0.22300
C296        C  0.26712695  0.02518446  0.66169320    -0.22300
C297        C  0.18597116  0.18102391  0.61448956    -0.17600
C298        C  0.19003444  0.06536689  0.66224595    -0.17600
C299        C  0.30711510  0.06996486  0.67379217    -0.17600
C300        C  0.30271768  0.18880757  0.64084525    -0.17600
H301        H  0.12713642  0.15845419  0.66295709     0.15300
H302        H  0.12974881  0.09585399  0.69077019     0.15300
H303        H  0.36048968  0.16815385  0.69697388     0.15300
H304        H  0.36309114  0.10384456  0.71337139     0.15300
H305        H  0.21369610  0.23882235  0.56537530     0.13600
H306        H  0.27674941  0.24358107  0.58202517     0.13600
H307        H  0.21973314  0.00169157  0.65371875     0.13600
H308        H  0.28337390  0.00425212  0.65991636     0.13600
H309        H  0.22013925  0.12138967  0.61980705     0.26800
H310        H  0.27516778  0.12542188  0.63167784     0.26800
N311        N  0.50297620  0.16989967  0.86911020    -0.35900
N312        N  0.44658134  0.12724041  0.87687333    -0.56500
N313        N  0.48949802  0.07029108  0.88531900    -0.35900
N314        N  0.04308326  0.11644187  0.88736782    -0.56500
C315        C  0.47837763  0.19162665  0.87543369     0.27600
C316        C  0.02771128  0.18757403  0.89071202     0.27600
C317        C  0.46084734  0.05707216  0.90064880     0.27600
C318        C  0.01106623  0.05226866  0.89559699     0.27600
C319        C  0.43292521  0.15434567  0.85499958     0.36300
C320        C  0.42529025  0.10247926  0.86938011     0.36300
C321        C  0.06495870  0.14049297  0.87790499     0.36300
C322        C  0.05797346  0.08785832  0.87513587     0.35500
C323        C  0.49014725  0.22038413  0.89734741    -0.21200
C324        C  0.02008628  0.21858384  0.90982326    -0.21200
C325        C  0.46653975  0.02721116  0.92617499    -0.21200
C326        C  0.99771870  0.02540506  0.92161073    -0.21200
C327        C  0.40299651  0.14662188  0.83295544    -0.22300
C328        C  0.39794543  0.11377569  0.84282229    -0.22300
C329        C  0.09386682  0.12727582  0.85981189    -0.22300
C330        C  0.08926438  0.09390808  0.85713617    -0.22300
C331        C  0.44588925  0.18636181  0.85997209    -0.17600
C332        C  0.05948572  0.17406310  0.88770321    -0.17600
C333        C  0.04437987  0.05646289  0.88472779    -0.17600
C334        C  0.42977549  0.07015609  0.88824842    -0.17600
H335        H  0.47648777  0.24228899  0.90710134     0.15300
H336        H  0.03640109  0.23614653  0.92776940     0.15300
H337        H  0.44872670  0.01056306  0.94287039     0.15300
H338        H  0.01052101  0.00456772  0.93862872     0.15300
H339        H  0.38630222  0.16299047  0.81259407     0.13600
H340        H  0.37678001  0.09974146  0.83128291     0.13600
H341        H  0.11579056  0.14035486  0.84898185     0.13600
H342        H  0.10710678  0.07621835  0.84391486     0.13600
H343        H  0.50141824  0.14718327  0.85052025     0.26800
H344        H  0.49268465  0.09145946  0.86259589     0.26800
C345        C  0.16329199  0.26759789  0.38037527    -0.15800
C346        C  0.16554980  0.29787887  0.40036048    -0.30900
H347        H  0.18380056  0.25823252  0.35789405     0.13300
H348        H  0.14464750  0.30827894  0.42050896     0.13800
C349        C  0.33985669  0.29909604  0.39542816    -0.15800
C350        C  0.34197818  0.26903141  0.37432441    -0.30900
H351        H  0.36087666  0.30921122  0.41564893     0.13300
H352        H  0.32131756  0.26017207  0.35162485     0.13800
C353        C  0.33338786  0.46239386  0.31934355    -0.15800
C354        C  0.35587814  0.46605561  0.35700954    -0.30900
H355        H  0.33006064  0.48133376  0.28918482     0.13300
H356        H  0.35995315  0.94846610  0.38962908     0.13800
C357        C  0.16582682  0.45993146  0.32200384    -0.15800
C358        C  0.14225112  0.46231699  0.35823735    -0.30900
H359        H  0.16929848  0.47961064  0.29318530     0.13300
H360        H  0.13942737  0.44310162  0.38804554     0.13800
C361        C  0.10690947  0.28361876  0.12860265    -0.15800
C362        C  0.08028342  0.28541205  0.15866497    -0.30900
H363        H  0.11192458  0.30310023  0.10003631     0.13300
H364        H  0.07432000  0.26535317  0.18562472     0.13800
C365        C  0.42364497  0.28457867  0.13158141    -0.15800
C366        C  0.40474095  0.27418354  0.09182751    -0.30900
H367        H  0.42283939  0.27210398  0.16976269     0.13300
H368        H  0.40527022  0.28697306  0.05386605     0.13800
C369        C  0.40719574  0.45369155  0.09539755    -0.15800
C370        C  0.39973619  0.47299846  0.13645144    -0.30900
H371        H  0.39193563  0.45380258  0.06020954     0.13300
H372        H  0.41525368  0.47295542  0.17134685     0.13800
C373        C  0.08764944  0.48130400  0.11319833    -0.15800
C374        C  0.08681541  0.45088136  0.09312868    -0.30900
H375        H  0.06639751  0.49018089  0.13429715     0.13300
H376        H  0.10851671  0.44100814  0.07459114     0.13800
C377        C  0.39982325  0.01988406  0.86784250    -0.15800
C378        C  0.40065470  0.04874496  0.89285259    -0.30900
H379        H  0.42315368  0.51429683  0.84469943     0.13300
H380        H  0.37960903  0.05746474  0.91458339     0.13800
C381        C  0.06558992  0.02676116  0.88414766    -0.15800
C382        C  0.09407438  0.02591779  0.91018655    -0.30900
H383        H  0.05764237  0.00563349  0.86143651     0.13300
H384        H  0.10092924  0.04663054  0.93478106     0.13800
C385        C  0.08849322  0.19574191  0.89383206    -0.15800
C386        C  0.09053659  0.22427972  0.86724933    -0.30900
H387        H  0.10879489  0.18729596  0.91794732     0.13300
H388        H  0.07061454  0.23140797  0.84122440     0.13800
C389        C  0.39508847  0.21647310  0.87632928    -0.15800
C390        C  0.42424064  0.21551723  0.85279413    -0.30900
H391        H  0.38784582  0.19597294  0.90155910     0.13300
H392        H  0.43281601  0.23645118  0.82979445     0.13800
C393        C  0.35415431  0.03978074  0.64063237    -0.15800
C394        C  0.33301357  0.04464817  0.67998727    -0.30900
H395        H  0.35554284  0.05787278  0.60875952     0.13300
H396        H  0.33083556  0.02643450  0.71151288     0.13800
C397        C  0.16522216  0.03900007  0.66514523    -0.15800
C398        C  0.13982396  0.03858164  0.63173803    -0.30900
H399        H  0.16924474  0.01856132  0.69238147     0.13300
H400        H  0.13633562  0.05855528  0.60343298     0.13800
C401        C  0.15703471  0.23373588  0.62256459    -0.15800
C402        C  0.15848535  0.20374376  0.60126880    -0.30900
H403        H  0.17717034  0.24182854  0.64716609     0.13300
H404        H  0.13769920  0.19426134  0.57964177     0.13800
C405        C  0.35475587  0.21736521  0.61939265    -0.15800
C406        C  0.32551514  0.21753428  0.64311202    -0.30900
H407        H  0.36256077  0.19519522  0.59920727     0.13300
H408        H  0.31676267  0.24009719  0.66100813     0.13800
O409        O  0.35275534  0.91096257  0.68374855    -0.73800
O410        O  0.33540131  0.83846374  0.77918648    -0.73800
O411        O  0.33427146  0.90506521  0.78578497    -0.73800
O412        O  0.35348950  0.84213107  0.67704924    -0.73900
O413        O  0.40590109  0.84281397  0.69983514    -0.73800
O414        O  0.38667067  0.90434449  0.80893062    -0.73800
O415        O  0.38790363  0.83726596  0.80143477    -0.73800
O416        O  0.40501992  0.90977921  0.70717737    -0.73800
Ni417      Ni  0.34212216  0.87418562  0.73017659     1.25400
Ni418      Ni  0.39815785  0.87355484  0.75521204     1.25400
C419        C  0.38151535  0.92327215  0.68174372     0.88400
C420        C  0.35908719  0.82556866  0.80504572     0.88400
C421        C  0.35776555  0.91563962  0.81410477     0.88400
C422        C  0.38250534  0.83075857  0.67288240     0.88600
O423        O  0.15451121  0.91461708  0.79731021    -0.73800
O424        O  0.14042818  0.85193714  0.68807367    -0.73800
O425        O  0.13711788  0.91901049  0.69437023    -0.73800
O426        O  0.15724165  0.84837000  0.79043511    -0.73900
O427        O  0.10459946  0.84546486  0.81132059    -0.73800
O428        O  0.08439357  0.91511940  0.71417991    -0.73800
O429        O  0.08778657  0.84867311  0.70886350    -0.73800
O430        O  0.10177548  0.91275134  0.81769869    -0.73800
Ni431      Ni  0.14914661  0.88373682  0.74156356     1.25400
Ni432      Ni  0.09276050  0.88050011  0.76398364     1.25400
C433        C  0.13044150  0.92430380  0.82504231     0.88400
C434        C  0.11241464  0.83871998  0.68253906     0.88400
C435        C  0.10764911  0.92885957  0.68896831     0.88400
C436        C  0.13372701  0.83445440  0.81487422     0.88600
O437        O  0.46592678  0.71745057  0.45851715    -0.73800
O438        O  0.04108669  0.73386467  0.56276265    -0.73800
O439        O  0.46898188  0.73562721  0.56040722    -0.73800
O440        O  0.04188978  0.71541701  0.46082905    -0.73900
O441        O  0.04344900  0.76856377  0.43833661    -0.73800
O442        O  0.46776081  0.78854925  0.53633614    -0.73800
O443        O  0.03968249  0.78699286  0.54005362    -0.73800
O444        O  0.46519905  0.77032291  0.43439930    -0.73800
Ni445      Ni  0.50089644  0.72445822  0.50837086     1.25400
Ni446      Ni  0.50009962  0.78111081  0.48276094     1.25400
C447        C  0.45317882  0.74123988  0.43193667     0.88400
C448        C  0.05188137  0.76333913  0.56729196     0.88400
C449        C  0.45654908  0.76445756  0.56367655     0.88400
C450        C  0.05496306  0.73923949  0.43528106     0.88600
C451        C  0.37764547  0.74514169  0.62496392     0.80900
N452        N  0.40660124  0.74234377  0.60005855    -0.77400
C453        C  0.42683539  0.76848263  0.59514827     0.83300
N454        N  0.41811834  0.79795216  0.61599662    -0.77400
C455        C  0.38906464  0.80119862  0.64130707     0.83400
N456        N  0.36886625  0.77471973  0.64569099    -0.79100
C457        C  0.13231877  0.75672659  0.63340598     0.80900
N458        N  0.10478422  0.74831824  0.60660298    -0.77400
C459        C  0.07988984  0.77041473  0.60179374     0.83300
N460        N  0.08250705  0.80057637  0.62464064    -0.77400
C461        C  0.11001846  0.80878927  0.65118242     0.83400
N462        N  0.13467322  0.78691188  0.65501685    -0.79100
O463        O  0.46465068  0.52208248  0.55996925    -0.73800
O464        O  0.03484591  0.53698800  0.45788072    -0.73800
O465        O  0.46444740  0.53706188  0.45556677    -0.73800
O466        O  0.03366257  0.52258872  0.56231583    -0.73900
O467        O  0.02779611  0.96801847  0.54051549    -0.73800
O468        O  0.46772491  0.98278046  0.43780138    -0.73800
O469        O  0.02804962  0.98195640  0.43586951    -0.73800
O470        O  0.46373188  0.96748056  0.54184860    -0.73800
Ni471      Ni  0.49750110  0.53124499  0.50773787     1.25400
Ni472      Ni  0.49878427  0.97365138  0.49275277     1.25400
C473        C  0.45098655  0.99204271  0.56544986     0.88400
C474        C  0.04612926  0.51195526  0.43347459     0.88400
C475        C  0.45286359  0.51234338  0.43110359     0.88400
C476        C  0.03906602  0.99307386  0.56483382     0.88600
C477        C  0.11642545  0.01146382  0.63109400     0.80900
N478        N  0.09219045  0.51496587  0.61554298    -0.77400
C479        C  0.06719477  0.98945519  0.60006212     0.83300
N480        N  0.07316895  0.96100694  0.62732817    -0.77400
C481        C  0.10099828  0.95796644  0.65634686     0.83400
N482        N  0.12250374  0.98310498  0.65775424    -0.79100
C483        C  0.37534735  0.01056452  0.63668616     0.80900
N484        N  0.36782892  0.98096774  0.65947414    -0.77400
C485        C  0.38775922  0.95441586  0.65246192     0.83300
N486        N  0.41524705  0.95784314  0.62267957    -0.77400
C487        C  0.42240453  0.98736587  0.59952109     0.83400
N488        N  0.40235231  0.01330538  0.60670413    -0.79100
O489        O  0.27911914  0.71395199  0.03297128    -0.73800
O490        O  0.21102956  0.73058326  0.93162562    -0.73800
O491        O  0.27785358  0.72972358  0.92886689    -0.73800
O492        O  0.21351548  0.71499974  0.03593779    -0.73900
O493        O  0.21444367  0.76874365  0.05364664    -0.73800
O494        O  0.27826371  0.78345518  0.94673619    -0.73800
O495        O  0.21274894  0.78421881  0.94980038    -0.73800
O496        O  0.28035030  0.76770709  0.05040036    -0.73800
Ni497      Ni  0.24529869  0.72038505  0.98133578     1.25400
Ni498      Ni  0.24645000  0.77788117  0.00090506     1.25400
C499        C  0.29120796  0.73843727  0.05771001     0.88400
C500        C  0.20025654  0.75998639  0.92504851     0.88400
C501        C  0.28941206  0.75872162  0.92169314     0.88400
C502        C  0.20333752  0.73976639  0.06212089     0.88600
C503        C  0.37158449  0.74500369  0.87136617     0.80900
N504        N  0.34221056  0.74017401  0.89387442    -0.77400
C505        C  0.31844471  0.76296317  0.88921570     0.83300
N506        N  0.32403861  0.79114910  0.86135924    -0.77400
C507        C  0.35339692  0.79607865  0.83775439     0.83400
N508        N  0.37729232  0.77304230  0.84319527    -0.79100
C509        C  0.12102906  0.74921385  0.85832464     0.80900
N510        N  0.14890472  0.74243425  0.88527155    -0.77400
C511        C  0.17197329  0.76612891  0.89089774     0.83300
N512        N  0.16712622  0.79655002  0.86915991    -0.77400
C513        C  0.13911917  0.80323111  0.84258262     0.83400
N514        N  0.11629310  0.77957747  0.83760085    -0.79100
O515        O  0.40892474  0.66005693  0.28634031    -0.73800
O516        O  0.38891560  0.59345385  0.18406673    -0.73800
O517        O  0.38877660  0.66142123  0.18433253    -0.73800
O518        O  0.40872392  0.59301338  0.28505932    -0.73900
O519        O  0.35650947  0.59168407  0.30882118    -0.73800
O520        O  0.33672914  0.66057102  0.20899673    -0.73800
O521        O  0.33671246  0.59371451  0.20802649    -0.73800
O522        O  0.35686092  0.65941247  0.31089249    -0.73800
Ni523      Ni  0.40066687  0.62707292  0.23377495     1.25400
Ni524      Ni  0.34491917  0.62646182  0.26029604     1.25400
C525        C  0.38569442  0.67118728  0.31470159     0.88400
C526        C  0.36012303  0.58145529  0.18145720     0.88400
C527        C  0.35971909  0.67280567  0.18110990     0.88400
C528        C  0.38543428  0.58002258  0.31140637     0.88600
O529        O  0.21577842  0.96066411  0.96971430    -0.73800
O530        O  0.28612324  0.97799798  0.06711238    -0.73800
O531        O  0.21743042  0.97856360  0.07145844    -0.73800
O532        O  0.28223470  0.96017877  0.96494305    -0.73900
O533        O  0.28417805  0.51468825  0.94032881    -0.73800
O534        O  0.21545267  0.53230690  0.03929510    -0.73800
O535        O  0.28171238  0.53256138  0.04281656    -0.73800
O536        O  0.21735147  0.51466200  0.93766125    -0.73800
Ni537      Ni  0.25047176  0.96745804  0.01954976     1.25400
Ni538      Ni  0.24976588  0.52537522  0.98906902     1.25400
C539        C  0.20301221  0.98496986  0.94467039     0.88400
C540        C  0.29322385  0.50867650  0.07024993     0.88400
C541        C  0.20221029  0.50841141  0.06459568     0.88400
C542        C  0.29357557  0.98410359  0.93729631     0.88600
C543        C  0.11833135  0.99964477  0.90316405     0.80900
N544        N  0.14817737  0.00343504  0.92500038    -0.77400
C545        C  0.17185931  0.98076174  0.91720258     0.83300
N546        N  0.16572543  0.95414396  0.88652487    -0.77400
C547        C  0.13589215  0.95037597  0.86381236     0.83400
N548        N  0.11226077  0.97310165  0.87232827    -0.79100
C549        C  0.37292001  0.99628271  0.87145774     0.80900
N550        N  0.34756405  0.50318999  0.89856916    -0.77400
C551        C  0.32169796  0.97863624  0.90243026     0.83300
N552        N  0.32548328  0.94967761  0.87604134    -0.77400
C553        C  0.35313341  0.94426901  0.84780456     0.83400
N554        N  0.37652548  0.96746604  0.84616025    -0.79100
O555        O  0.11078542  0.66167123  0.19168653    -0.73800
O556        O  0.09206315  0.59089352  0.28768821    -0.73800
O557        O  0.09511318  0.65735518  0.29445343    -0.73800
O558        O  0.10835072  0.59399281  0.18458898    -0.73900
O559        O  0.16127351  0.59132094  0.20365563    -0.73800
O560        O  0.14790258  0.65390644  0.31430926    -0.73800
O561        O  0.14490763  0.58642133  0.30655759    -0.73800
O562        O  0.16361079  0.65819241  0.21124010    -0.73800
Ni563      Ni  0.09975829  0.62605725  0.23860772     1.25400
Ni564      Ni  0.15630437  0.62233266  0.25982542     1.25400
C565        C  0.13987763  0.67252877  0.18755734     0.88400
C566        C  0.11548227  0.57644624  0.31173303     0.88400
C567        C  0.11980623  0.66688710  0.32106469     0.88400
C568        C  0.13659662  0.58127838  0.17757947     0.88600
C569        C  0.11674888  0.50288864  0.11326786     0.80900
N570        N  0.14584454  0.49426357  0.09112074    -0.77400
C571        C  0.17194317  0.51503064  0.09460324     0.83300
N572        N  0.16875172  0.54402943  0.12095396    -0.77400
C573        C  0.13983772  0.55245581  0.14317037     0.83400
N574        N  0.11417505  0.53189796  0.13886807    -0.79100
C575        C  0.37346836  0.49742905  0.13343177     0.80900
N576        N  0.34531258  0.49116379  0.10725527    -0.77400
C577        C  0.32172834  0.51456865  0.10397212     0.83300
N578        N  0.32659256  0.54451749  0.12662832    -0.77400
C579        C  0.35493411  0.55080761  0.15250969     0.83400
N580        N  0.37805311  0.52713115  0.15601189    -0.79100
C581        C  0.36787032  0.75655281  0.12576751     0.80900
N582        N  0.34060994  0.75938200  0.09629885    -0.77400
C583        C  0.31951460  0.73400790  0.09237068     0.83300
N584        N  0.32568613  0.70524460  0.11875801    -0.77400
C585        C  0.35333600  0.70219526  0.14839917     0.83400
N586        N  0.37433043  0.72786109  0.15153944    -0.79100
C587        C  0.13159139  0.75878581  0.14212776     0.80900
N588        N  0.15733013  0.76162507  0.10937002    -0.77400
C589        C  0.17721642  0.73573665  0.10059223     0.83300
N590        N  0.17153126  0.70645777  0.12528477    -0.77400
C591        C  0.14559602  0.70330114  0.15830061     0.83400
N592        N  0.12550372  0.72945638  0.16636262    -0.79100
C593        C  0.12081818  0.49109378  0.36163357     0.80900
N594        N  0.09391008  0.48902277  0.39200893    -0.77400
C595        C  0.07411060  0.51535328  0.39803690     0.83300
N596        N  0.08129172  0.54425173  0.37306406    -0.77400
C597        C  0.10857731  0.54658041  0.34268961     0.83400
N598        N  0.12827658  0.51998387  0.33721962    -0.79100
C599        C  0.37765506  0.49443652  0.35991070     0.80900
N600        N  0.40463662  0.49133522  0.38979228    -0.77400
C601        C  0.42525576  0.51681258  0.39568300     0.83300
N602        N  0.41886230  0.54611351  0.37140458    -0.77400
C603        C  0.39148438  0.54962262  0.34153467     0.83400
N604        N  0.37084964  0.52370059  0.33584589    -0.79100
C605        C  0.36858756  0.74960894  0.38030452     0.80900
N606        N  0.39754378  0.75684903  0.40404822    -0.77400
C607        C  0.42308287  0.73528330  0.40081717     0.83300
N608        N  0.41954948  0.70687702  0.37267422    -0.77400
C609        C  0.39065627  0.70001787  0.34864219     0.83400
N610        N  0.36558104  0.72127200  0.35323839    -0.79100
C611        C  0.13962702  0.74518798  0.38529008     0.80900
N612        N  0.14238502  0.71618978  0.35969491    -0.77400
C613        C  0.11681013  0.69543605  0.35586687     0.83300
N614        N  0.08800405  0.70359625  0.37860155    -0.77400
C615        C  0.08483223  0.73256693  0.40490921     0.83400
N616        N  0.11066000  0.75352145  0.40780311    -0.79100
N617        N  0.50104839  0.91792075  0.11091883    -0.35900
N618        N  0.44999495  0.86889070  0.13019019    -0.56500
N619        N  0.49880210  0.82063964  0.16265717    -0.35900
N620        N  0.05124146  0.87132177  0.14542592    -0.56500
C621        C  0.47468241  0.93402888  0.09123271     0.27600
C622        C  0.02921494  0.93675721  0.10336176     0.27600
C623        C  0.47226996  0.80137195  0.15729682     0.27600
C624        C  0.02746603  0.80402881  0.16634351     0.27600
C625        C  0.43154757  0.89629208  0.12592320     0.36300
C626        C  0.43075378  0.84549373  0.15195114     0.36300
C627        C  0.07007465  0.89846237  0.14346678     0.36300
C628        C  0.06891547  0.84789230  0.17068084     0.36300
C629        C  0.48513999  0.96022467  0.06015778    -0.21200
C630        C  0.02013113  0.96279615  0.07060171    -0.21200
C631        C  0.48168304  0.76882552  0.15140213    -0.21200
C632        C  0.01853103  0.77180840  0.15607594    -0.21200
C633        C  0.40050786  0.89019695  0.14511709    -0.22300
C634        C  0.40006659  0.85804221  0.16174132    -0.22300
C635        C  0.09977023  0.89225678  0.16778911    -0.22300
C636        C  0.09893722  0.86024371  0.18530215    -0.22300
C637        C  0.44154863  0.92616788  0.10208800    -0.17600
C638        C  0.06185796  0.92792912  0.11658880    -0.17600
C639        C  0.05961148  0.81455475  0.17493209    -0.17600
C640        C  0.43978613  0.81222172  0.15872953    -0.17600
H641        H  0.47013712  0.97788594  0.03907825     0.15300
H642        H  0.03600750  0.97945979  0.04933122     0.15300
H643        H  0.46624376  0.74757026  0.14604008     0.15300
H644        H  0.03422695  0.75056676  0.15232843     0.15300
H645        H  0.38020116  0.90711044  0.14687043     0.13600
H646        H  0.37942919  0.84527665  0.17862961     0.13600
H647        H  0.12002482  0.90898340  0.17219437     0.13600
H648        H  0.11843942  0.84730535  0.20541796     0.13600
H649        H  0.50051160  0.89850338  0.13756467     0.26800
H650        H  0.49904372  0.84567452  0.17020597     0.26800
N651        N  0.24923321  0.92867748  0.33067222    -0.35900
N652        N  0.20090542  0.87998505  0.36252131    -0.56500
N653        N  0.25242383  0.83127635  0.38090836    -0.35900
N654        N  0.30073555  0.88201743  0.35939598    -0.56500
C655        C  0.22254568  0.94774032  0.33618035     0.27600
C656        C  0.27524505  0.94878322  0.33404837     0.27600
C657        C  0.22635840  0.81533035  0.40141971     0.27600
C658        C  0.27961833  0.81659731  0.40037598     0.27600
C659        C  0.18139258  0.90335136  0.34101821     0.36300
C660        C  0.18278228  0.85238646  0.36635727     0.36300
C661        C  0.31832219  0.90603016  0.33577597     0.36300
C662        C  0.32039486  0.85540808  0.36261272     0.36300
C663        C  0.23170614  0.98033024  0.34236539    -0.21200
C664        C  0.26498568  0.98098693  0.34100469    -0.21200
C665        C  0.23713045  0.78991231  0.43399358    -0.21200
C666        C  0.27067299  0.79072198  0.43335452    -0.21200
C667        C  0.15084188  0.89057099  0.33095536    -0.22300
C668        C  0.15166329  0.85831210  0.34715332    -0.22300
C669        C  0.34916218  0.89462451  0.32373882    -0.22300
C670        C  0.35054216  0.86259395  0.34095141    -0.22300
C671        C  0.19013320  0.93672061  0.33448002    -0.17600
C672        C  0.30796361  0.93901083  0.32993821    -0.17600
C673        C  0.31218781  0.82532523  0.38751567    -0.17600
C674        C  0.19320754  0.82251808  0.38995453    -0.17600
H675        H  0.21609892  0.00147906  0.34791018     0.15300
H676        H  0.27988330  0.00273029  0.34527476     0.15300
H677        H  0.22238768  0.77264396  0.45618393     0.15300
H678        H  0.28662233  0.77418601  0.45492685     0.15300
H679        H  0.13005791  0.90321750  0.31406962     0.13600
H680        H  0.13156232  0.84122537  0.34507511     0.13600
H681        H  0.36877282  0.90813125  0.30515831     0.13600
H682        H  0.37141627  0.84649173  0.33790917     0.13600
H683        H  0.24966900  0.90359345  0.32287428     0.26800
H684        H  0.25163305  0.85017514  0.35301771     0.26800
N685        N  0.19923420  0.62263681  0.65876880    -0.35900
N686        N  0.24708156  0.67458313  0.64917078    -0.56500
N687        N  0.29934368  0.62613922  0.66386732    -0.35900
N688        N  0.25041122  0.57533014  0.68442161    -0.56500
C689        C  0.18050059  0.64990729  0.66086341     0.27600
C690        C  0.18232565  0.59808720  0.68219896     0.27600
C691        C  0.31617680  0.65459262  0.66942689     0.27600
C692        C  0.31798209  0.60133155  0.68340787     0.27600
C693        C  0.22081892  0.69032277  0.62876586     0.36300
C694        C  0.27324931  0.69296515  0.63616517     0.36300
C695        C  0.22465968  0.55489343  0.67999865     0.36300
C696        C  0.27713768  0.55619830  0.68011931     0.36300
C697        C  0.15150100  0.64273329  0.68632126    -0.21200
C698        C  0.15272970  0.60995078  0.70007204    -0.21200
C699        C  0.34606729  0.64762042  0.69259370    -0.21200
C700        C  0.34729403  0.61402423  0.70096837    -0.21200
C701        C  0.23042669  0.71867193  0.60229058    -0.22300
C702        C  0.26358053  0.72057823  0.60761801    -0.22300
C703        C  0.23503064  0.52274397  0.67337866    -0.22300
C704        C  0.26826277  0.52355550  0.67345636    -0.22300
C705        C  0.18825030  0.68049148  0.63762158    -0.17600
C706        C  0.19191210  0.56476267  0.68350946    -0.17600
C707        C  0.30946997  0.56745578  0.68414331    -0.17600
C708        C  0.30549935  0.68634841  0.65248402    -0.17600
H709        H  0.13152559  0.65937109  0.69403413     0.15300
H710        H  0.13382924  0.59627043  0.72023795     0.15300
H711        H  0.36508583  0.66485066  0.70260162     0.15300
H712        H  0.36731792  0.60053946  0.71862466     0.15300
H713        H  0.21522240  0.73639180  0.58177933     0.13600
H714        H  0.27887270  0.73997397  0.59193859     0.13600
H715        H  0.22029837  0.50094052  0.66853416     0.13600
H716        H  0.28401681  0.50244120  0.66872307     0.13600
H717        H  0.22118518  0.62032441  0.63873609     0.26800
H718        H  0.27690976  0.62346393  0.64553578     0.26800
N719        N  0.50367469  0.67281676  0.87045885    -0.35900
N720        N  0.44727927  0.62994137  0.87626763    -0.56500
N721        N  0.49017471  0.57315119  0.88485508    -0.35900
N722        N  0.04825061  0.61670402  0.87339272    -0.56500
C723        C  0.47906778  0.69460981  0.87597811     0.27600
C724        C  0.03402847  0.68758596  0.88117821     0.27600
C725        C  0.46152549  0.56014873  0.90065579     0.27600
C726        C  0.01568906  0.55262982  0.88423155     0.27600
C727        C  0.43347144  0.65724562  0.85535745     0.36300
C728        C  0.42577909  0.60529923  0.86916864     0.36300
C729        C  0.07022070  0.64048974  0.86280474     0.36300
C730        C  0.06242578  0.58794975  0.86019975     0.35500
C731        C  0.49081098  0.72352294  0.89747858    -0.21200
C732        C  0.02752684  0.71811052  0.90323017    -0.21200
C733        C  0.46721962  0.53084673  0.92778655    -0.21200
C734        C  0.00289175  0.52534023  0.90992871    -0.21200
C735        C  0.40315751  0.64977647  0.83440948    -0.22300
C736        C  0.39809035  0.61689161  0.84392151    -0.22300
C737        C  0.09855983  0.62693949  0.84304850    -0.22300
C738        C  0.09345716  0.59361799  0.84060986    -0.22300
C739        C  0.44658449  0.68922611  0.86039901    -0.17600
C740        C  0.06537720  0.67404651  0.87346485    -0.17600
C741        C  0.04863628  0.55669172  0.87053426    -0.17600
C742        C  0.43045111  0.57282515  0.88732547    -0.17600
H743        H  0.47714699  0.74554075  0.90657087     0.15300
H744        H  0.04469806  0.73507811  0.92054318     0.15300
H745        H  0.44938763  0.51455942  0.94532830     0.15300
H746        H  0.01595729  0.50395344  0.92443047     0.15300
H747        H  0.38618570  0.66634524  0.81510538     0.13600
H748        H  0.37664330  0.60306708  0.83312270     0.13600
H749        H  0.12046291  0.63973284  0.83123447     0.13600
H750        H  0.11083876  0.57567648  0.82664329     0.13600
H751        H  0.50214625  0.64995024  0.85238390     0.26800
H752        H  0.49337707  0.59386808  0.86102388     0.26800
C753        C  0.16791038  0.76762007  0.38433042    -0.15800
C754        C  0.16729912  0.79823083  0.40362667    -0.30900
H755        H  0.18930349  0.75951873  0.36280674     0.13300
H756        H  0.14535951  0.80714962  0.42267792     0.13800
C757        C  0.33965244  0.80230630  0.39997614    -0.15800
C758        C  0.33991555  0.77171663  0.38067213    -0.30900
H759        H  0.36160632  0.81212135  0.41782124     0.13300
H760        H  0.31838898  0.76307923  0.35997795     0.13800
C761        C  0.33258452  0.96546026  0.32467359    -0.15800
C762        C  0.35691444  0.96759804  0.35968778    -0.30900
H763        H  0.32866486  0.98500324  0.29573733     0.13300
H764        H  0.35827891  0.44739967  0.38787988     0.13800
C765        C  0.16451302  0.96230651  0.32906527    -0.15800
C766        C  0.14005755  0.96433200  0.36384017    -0.30900
H767        H  0.16807006  0.98190873  0.30013838     0.13300
H768        H  0.13692216  0.94520277  0.39369573     0.13800
C769        C  0.10973662  0.78723303  0.14696598    -0.15800
C770        C  0.08488670  0.78859419  0.18106741    -0.30900
H771        H  0.11319803  0.80726150  0.11875957     0.13300
H772        H  0.08031533  0.76804763  0.20780210     0.13800
C773        C  0.41431193  0.78655500  0.16339136    -0.15800
C774        C  0.39040708  0.78445231  0.12751837    -0.30900
H775        H  0.41760063  0.76702610  0.19256305     0.13300
H776        H  0.38772651  0.80350600  0.09737843     0.13800
C777        C  0.41504636  0.94996654  0.08848255    -0.15800
C778        C  0.41377394  0.97933221  0.11189011    -0.30900
H779        H  0.39394283  0.94111406  0.06696306     0.13300
H780        H  0.43456159  0.98710890  0.13531398     0.13800
C781        C  0.09038890  0.98105496  0.11974652    -0.15800
C782        C  0.08960622  0.95006741  0.10255101    -0.30900
H783        H  0.06890448  0.99074710  0.13926659     0.13300
H784        H  0.11148095  0.93930594  0.08590548     0.13800
C785        C  0.40180921  0.52152705  0.86716910    -0.15800
C786        C  0.40160350  0.55089865  0.89088754    -0.30900
H787        H  0.42062097  0.01267765  0.84401805     0.13300
H788        H  0.37995636  0.55953758  0.91109492     0.13800
C789        C  0.06965038  0.52696746  0.86928051    -0.15800
C790        C  0.09791972  0.52613154  0.89564510    -0.30900
H791        H  0.06162165  0.50582412  0.84668636     0.13300
H792        H  0.10482693  0.54703477  0.91980913     0.13800
C793        C  0.09440421  0.69571844  0.87691139    -0.15800
C794        C  0.09491346  0.72496736  0.85212487    -0.30900
H795        H  0.11542790  0.68728998  0.89932582     0.13300
H796        H  0.07422264  0.73229112  0.82789638     0.13800
C797        C  0.39626102  0.71928946  0.87905595    -0.15800
C798        C  0.42480007  0.71823690  0.85365258    -0.30900
H799        H  0.38986891  0.69916000  0.90565848     0.13300
H800        H  0.43256891  0.73870173  0.82884692     0.13800
C801        C  0.35925475  0.54020404  0.65317004    -0.15800
C802        C  0.33516893  0.54168751  0.68862513    -0.30900
H803        H  0.36259575  0.56059980  0.62561907     0.13300
H804        H  0.33125160  0.52102437  0.71542327     0.13800
C805        C  0.16666060  0.53866929  0.68571857    -0.15800
C806        C  0.14109769  0.53934046  0.65261230    -0.30900
H807        H  0.17113550  0.51699864  0.71012542     0.13300
H808        H  0.13721253  0.56060009  0.62700428     0.13800
C809        C  0.15989347  0.73399571  0.64151401    -0.15800
C810        C  0.16064986  0.70294073  0.62428063    -0.30900
H811        H  0.18031112  0.74312312  0.66448451     0.13300
H812        H  0.13952624  0.69277815  0.60440856     0.13800
C813        C  0.35664135  0.71558524  0.62871839    -0.15800
C814        C  0.32798320  0.71521594  0.65397425    -0.30900
H815        H  0.36476672  0.69345276  0.60876256     0.13300
H816        H  0.31904995  0.73774238  0.67177427     0.13800
O817        O  0.85633030  0.41164357  0.68189730    -0.73800
O818        O  0.83549911  0.34067876  0.77921151    -0.73800
O819        O  0.83627780  0.40760548  0.78282774    -0.73800
O820        O  0.85536700  0.34246728  0.67728545    -0.73900
O821        O  0.90742639  0.34194154  0.70197639    -0.73800
O822        O  0.88829706  0.40603215  0.80802148    -0.73800
O823        O  0.88760217  0.33852675  0.80346570    -0.73800
O824        O  0.90820807  0.40944781  0.70723404    -0.73800
Ni825      Ni  0.84406544  0.37558696  0.72894435     1.25400
Ni826      Ni  0.89966197  0.37387267  0.75609879     1.25400
C827        C  0.88526933  0.42361763  0.68129025     0.88400
C828        C  0.85841548  0.32763308  0.80674483     0.88400
C829        C  0.85967893  0.41835721  0.81118446     0.88400
C830        C  0.88413207  0.33029575  0.67420442     0.88600
O831        O  0.65470063  0.41142140  0.79999219    -0.73800
O832        O  0.63773045  0.35032442  0.68860138    -0.73800
O833        O  0.63785313  0.41741745  0.69688809    -0.73800
O834        O  0.65432079  0.34500831  0.79114274    -0.73900
O835        O  0.60156773  0.34362022  0.81154365    -0.73800
O836        O  0.58499065  0.41552277  0.71640216    -0.73800
O837        O  0.58496964  0.34888912  0.70877057    -0.73800
O838        O  0.60196444  0.41131047  0.82024230    -0.73800
Ni839      Ni  0.64795193  0.38116326  0.74324216     1.25400
Ni840      Ni  0.59148856  0.37991396  0.76525382     1.25400
C841        C  0.63101887  0.42195668  0.82789722     0.88400
C842        C  0.60918282  0.33840753  0.68187951     0.88400
C843        C  0.60885448  0.42851771  0.69157986     0.88400
C844        C  0.63031705  0.33160416  0.81504341     0.88600
O845        O  0.96741044  0.21812211  0.45350710    -0.73800
O846        O  0.53706682  0.23599477  0.55552326    -0.73800
O847        O  0.96844065  0.23541747  0.55579170    -0.73800
O848        O  0.53619113  0.21723112  0.45341345    -0.73900
O849        O  0.53698070  0.27024602  0.43031588    -0.73800
O850        O  0.96730358  0.28851757  0.53284300    -0.73800
O851        O  0.53516430  0.28903935  0.53262339    -0.73800
O852        O  0.96654905  0.27109756  0.43028219    -0.73800
Ni853      Ni  0.00148701  0.22520379  0.50498751     1.25400
Ni854      Ni  0.00078220  0.28203432  0.48067778     1.25400
C855        C  0.95433262  0.24200784  0.42763368     0.88400
C856        C  0.54776401  0.26555554  0.55987175     0.88400
C857        C  0.95601801  0.26423388  0.55968210     0.88400
C858        C  0.54888979  0.24100973  0.42721409     0.88600
C859        C  0.87677245  0.24571417  0.62090095     0.80900
N860        N  0.90541643  0.24274904  0.59503226    -0.77400
C861        C  0.92651690  0.26828462  0.59186967     0.83300
N862        N  0.91903506  0.29729472  0.61561649    -0.77400
C863        C  0.89030936  0.30072407  0.64193778     0.83400
N864        N  0.86919686  0.27486026  0.64435488    -0.79100
C865        C  0.62936518  0.25895541  0.62263256     0.80900
N866        N  0.60173193  0.25106798  0.59570673    -0.77400
C867        C  0.57619122  0.27260865  0.59414204     0.83300
N868        N  0.57829124  0.30176594  0.62077316    -0.77400
C869        C  0.60598279  0.30935981  0.64782164     0.83400
N870        N  0.63114349  0.28799170  0.64795697    -0.79100
O871        O  0.96127760  0.02148474  0.55565093    -0.73800
O872        O  0.53262354  0.03714003  0.46251533    -0.73800
O873        O  0.96203591  0.03552525  0.45125678    -0.73800
O874        O  0.52785043  0.02258158  0.56601305    -0.73900
O875        O  0.53038743  0.46801846  0.54234827    -0.73800
O876        O  0.96836908  0.48401370  0.43952338    -0.73800
O877        O  0.52968430  0.48221501  0.43792148    -0.73800
O878        O  0.96750186  0.46879077  0.54378657    -0.73800
Ni879      Ni  0.99463747  0.03061429  0.50455220     1.25400
Ni880      Ni  0.00093477  0.47425653  0.49180529     1.25400
C881        C  0.95584670  0.49354910  0.56825906     0.88400
C882        C  0.54595976  0.01237875  0.44021835     0.88400
C883        C  0.95020955  0.01064915  0.42732847     0.88400
C884        C  0.54211395  0.49296295  0.56632617     0.88600
C885        C  0.61876040  0.51144746  0.63426060     0.80900
N886        N  0.58688331  0.01647334  0.61679193    -0.77400
C887        C  0.57019888  0.48912084  0.60126029     0.83300
N888        N  0.57586334  0.46074480  0.62865836    -0.77400
C889        C  0.60319624  0.45778075  0.65880638     0.83400
N890        N  0.62464105  0.48306743  0.66125282    -0.79100
C891        C  0.88051970  0.51214395  0.64097829     0.80900
N892        N  0.87247270  0.48208361  0.66179183    -0.77400
C893        C  0.89216824  0.45540515  0.65379328     0.83300
N894        N  0.91989063  0.45916509  0.62471776    -0.77400
C895        C  0.92767527  0.48910467  0.60349102     0.83400
N896        N  0.90791085  0.51518292  0.61183787    -0.79100
O897        O  0.77666547  0.21415199  0.03392674    -0.73800
O898        O  0.70923294  0.22951004  0.93096545    -0.73800
O899        O  0.77606640  0.23200470  0.93062402    -0.73800
O900        O  0.71083808  0.21201814  0.03400398    -0.73900
O901        O  0.70823549  0.26538343  0.05393259    -0.73800
O902        O  0.77456758  0.28522591  0.95162898    -0.73800
O903        O  0.70866455  0.28288859  0.95114335    -0.73800
O904        O  0.77479613  0.26737392  0.05489443    -0.73800
Ni905      Ni  0.74328326  0.22005454  0.98134894     1.25400
Ni906      Ni  0.74151029  0.27707179  0.00384819     1.25400
C907        C  0.78722463  0.23859647  0.06054011     0.88400
C908        C  0.69726668  0.25849229  0.92541132     0.88400
C909        C  0.78689673  0.26146005  0.92544204     0.88400
C910        C  0.69808191  0.23575597  0.05966507     0.88600
C911        C  0.86890634  0.24696958  0.87408607     0.80900
N912        N  0.83973794  0.24313430  0.89764486    -0.77400
C913        C  0.81651840  0.26658048  0.89396297     0.83300
N914        N  0.82243545  0.29458479  0.86537869    -0.77400
C915        C  0.85175558  0.29856687  0.84061547     0.83400
N916        N  0.87499394  0.27475965  0.84551486    -0.79100
C917        C  0.61740972  0.24648275  0.86123670     0.80900
N918        N  0.64563752  0.24011892  0.88752079    -0.77400
C919        C  0.66873370  0.26390121  0.89160839     0.83300
N920        N  0.66352138  0.29401367  0.86928360    -0.77400
C921        C  0.63530568  0.30041315  0.84323943     0.83400
N922        N  0.61239693  0.27664212  0.83946926    -0.79100
O923        O  0.90784257  0.16020652  0.28774724    -0.73800
O924        O  0.89040396  0.09609973  0.18145087    -0.73800
O925        O  0.88875706  0.16381677  0.18514101    -0.73800
O926        O  0.90771250  0.09336723  0.28407132    -0.73900
O927        O  0.85525828  0.09273775  0.30639944    -0.73800
O928        O  0.83618457  0.16070585  0.20599879    -0.73800
O929        O  0.83802641  0.09376695  0.20393413    -0.73800
O930        O  0.85520142  0.16008204  0.30875522    -0.73800
Ni931      Ni  0.90051437  0.12846380  0.23351738     1.25400
Ni932      Ni  0.84433691  0.12687132  0.25723591     1.25400
C933        C  0.88418226  0.17136509  0.31485996     0.88400
C934        C  0.86222367  0.08306214  0.17715391     0.88400
C935        C  0.85932559  0.17415824  0.18016811     0.88400
C936        C  0.88399353  0.08096147  0.31037185     0.88600
O937        O  0.72004405  0.46065135  0.96937747    -0.73800
O938        O  0.79130513  0.48157262  0.06288408    -0.73800
O939        O  0.72414946  0.47885973  0.07124836    -0.73800
O940        O  0.78626177  0.46351209  0.96059748    -0.73900
O941        O  0.78284058  0.01145629  0.94004674    -0.73800
O942        O  0.71828970  0.02833669  0.04632220    -0.73800
O943        O  0.78491186  0.02966525  0.04205383    -0.73800
O944        O  0.71611751  0.01030359  0.94532385    -0.73800
Ni945      Ni  0.75565448  0.46926961  0.01705155     1.25400
Ni946      Ni  0.75058547  0.02171969  0.99255880     1.25400
C947        C  0.70577382  0.48429082  0.94482627     0.88400
C948        C  0.79859243  0.00627407  0.06796606     0.88400
C949        C  0.70600603  0.00418755  0.07226537     0.88400
C950        C  0.79619055  0.48789548  0.93261237     0.88600
C951        C  0.62012126  0.49750076  0.90717390     0.80900
N952        N  0.65023272  0.50135091  0.92784496    -0.77400
C953        C  0.67398069  0.47892440  0.91912390     0.83300
N954        N  0.66752119  0.45219468  0.88849413    -0.77400
C955        C  0.63724904  0.44818516  0.86691640     0.83400
N956        N  0.61368291  0.47092362  0.87647674    -0.79100
C957        C  0.87474040  0.50050070  0.86436311     0.80900
N958        N  0.84561875  0.00132535  0.89558542    -0.77400
C959        C  0.82365647  0.48303955  0.89623488     0.83300
N960        N  0.82757833  0.45375492  0.87095397    -0.77400
C961        C  0.85512183  0.44798055  0.84279038     0.83400
N962        N  0.87842558  0.47128917  0.84001724    -0.79100
O963        O  0.60579563  0.15318973  0.18790956    -0.73800
O964        O  0.59248758  0.08716087  0.29439228    -0.73800
O965        O  0.59091877  0.15410693  0.29173810    -0.73800
O966        O  0.60789348  0.08602969  0.19056530    -0.73900
O967        O  0.66098955  0.08760558  0.20849419    -0.73800
O968        O  0.64394536  0.15504517  0.31022862    -0.73800
O969        O  0.64557106  0.08721267  0.31251711    -0.73800
O970        O  0.65886199  0.15437804  0.20618148    -0.73800
Ni971      Ni  0.59743598  0.12000620  0.24034386     1.25400
Ni972      Ni  0.65421540  0.12111249  0.26030341     1.25400
C973        C  0.63415854  0.16527399  0.18046875     0.88400
C974        C  0.61688972  0.07565866  0.31996878     0.88400
C975        C  0.61515532  0.16661856  0.31621674     0.88400
C976        C  0.63691683  0.07523975  0.18360383     0.88600
C977        C  0.61922117  0.99814136  0.11443952     0.80900
N978        N  0.64897135  0.98959143  0.09446469    -0.77400
C979        C  0.67521003  0.00993052  0.10163464     0.83300
N980        N  0.67133146  0.03843145  0.12924436    -0.77400
C981        C  0.64175184  0.04655388  0.14947235     0.83400
N982        N  0.61613708  0.02651223  0.14141560    -0.79100
C983        C  0.88408292  0.00389381  0.11720569     0.80900
N984        N  0.85527501  0.99406167  0.09535417    -0.77400
C985        C  0.82848372  0.01401762  0.09815854     0.83300
N986        N  0.83068003  0.04352050  0.12335798    -0.77400
C987        C  0.85929888  0.05313666  0.14523266     0.83400
N988        N  0.88565145  0.03331249  0.14170973    -0.79100
C989        C  0.86493865  0.25819249  0.12430522     0.80900
N990        N  0.83673245  0.26064880  0.09716973    -0.77400
C991        C  0.81601228  0.23490350  0.09451531     0.83300
N992        N  0.82354002  0.20614483  0.11996375    -0.77400
C993        C  0.85204923  0.20347171  0.14755616     0.83400
N994        N  0.87265958  0.22951639  0.14933451    -0.79100
C995        C  0.61519737  0.24328245  0.11203028     0.80900
N996        N  0.64396831  0.25070533  0.08885994    -0.77400
C997        C  0.66932792  0.22940433  0.09222390     0.83300
N998        N  0.66620357  0.20092764  0.12057146    -0.77400
C999        C  0.63750688  0.19378669  0.14482753     0.83400
N1000       N  0.61194062  0.21469615  0.13937223    -0.79100
C1001       C  0.62962329  0.99757328  0.39394404     0.80900
N1002       N  0.60039847  0.99387442  0.41787591    -0.77400
C1003       C  0.57664628  0.01668939  0.41133412     0.83300
N1004       N  0.58235083  0.04377370  0.38080909    -0.77400
C1005       C  0.61170711  0.04781157  0.35664435     0.83400
N1006       N  0.63528193  0.02456531  0.36315336    -0.79100
C1007       C  0.86723892  0.00145701  0.37563155     0.80900
N1008       N  0.89641229  0.99409760  0.39792433    -0.77400
C1009       C  0.92154750  0.01560661  0.39383823     0.83300
N1010       N  0.91768071  0.04422215  0.36611951    -0.77400
C1011       C  0.88863718  0.05132181  0.34302138     0.83400
N1012       N  0.86335124  0.03023199  0.34901315    -0.79100
C1013       C  0.86804630  0.24962482  0.38146778     0.80900
N1014       N  0.89769903  0.25738423  0.40269582    -0.77400
C1015       C  0.92336084  0.23597006  0.39804606     0.83300
N1016       N  0.91900839  0.20718214  0.37111950    -0.77400
C1017       C  0.88941586  0.19979840  0.34966486     0.83400
N1018       N  0.86443488  0.22095989  0.35551325    -0.79100
C1019       C  0.63403888  0.24649920  0.37693056     0.80900
N1020       N  0.63658767  0.21734678  0.35179140    -0.77400
C1021       C  0.61103495  0.19658046  0.34808452     0.83300
N1022       N  0.58213336  0.20499121  0.37054082    -0.77400
C1023       C  0.57888804  0.23429519  0.39626338     0.83400
N1024       N  0.60498064  0.25513679  0.39920040    -0.79100
N1025       N  0.99977216  0.42147582  0.11304091    -0.35900
N1026       N  0.94861205  0.37144248  0.12572586    -0.56500
N1027       N  0.99752997  0.32212232  0.14891139    -0.35900
N1028       N  0.54959687  0.38046712  0.11010969    -0.56500
C1029       C  0.97330236  0.43766716  0.09427096     0.27600
C1030       C  0.52025396  0.44803934  0.10382124     0.27600
C1031       C  0.97104084  0.30324395  0.14089184     0.27600
C1032       C  0.53169124  0.31226442  0.13200690     0.27600
C1033       C  0.93063549  0.39920141  0.12732892     0.36300
C1034       C  0.92966308  0.34714333  0.14552112     0.36300
C1035       C  0.56547765  0.40780692  0.09396219     0.36300
C1036       C  0.56964069  0.35482504  0.10039440     0.36300
C1037       C  0.98337021  0.46386372  0.06282832    -0.21200
C1038       C  0.50781468  0.47928303  0.11234150    -0.21200
C1039       C  0.98045621  0.27136079  0.12898353    -0.21200
C1040       C  0.52477916  0.28574262  0.16493484    -0.21200
C1041       C  0.90014798  0.39248912  0.14823315    -0.22300
C1042       C  0.89959991  0.35948606  0.15995814    -0.22300
C1043       C  0.59564781  0.39944498  0.07364555    -0.22300
C1044       C  0.59833279  0.36588646  0.07784833    -0.22300
C1045       C  0.94044174  0.42992714  0.10644357    -0.17600
C1046       C  0.55381343  0.44034175  0.10017354    -0.17600
C1047       C  0.56308642  0.32201307  0.11549317    -0.17600
C1048       C  0.93868860  0.31364197  0.14710769    -0.17600
H1049       H  0.96812976  0.48145495  0.04205390     0.15300
H1050       H  0.52113055  0.50184574  0.11862593     0.15300
H1051       H  0.96495084  0.25053186  0.12066595     0.15300
H1052       H  0.54186234  0.26988184  0.18546520     0.15300
H1053       H  0.88030598  0.40956129  0.15427531     0.13600
H1054       H  0.87934143  0.34613435  0.17687719     0.13600
H1055       H  0.61380429  0.41579728  0.05718360     0.13600
H1056       H  0.61904829  0.35141676  0.06558117     0.13600
H1057       H  0.99947543  0.40190864  0.13984413     0.26800
H1058       H  0.99779021  0.34642702  0.16159246     0.26800
N1059       N  0.74909979  0.42874279  0.33362638    -0.35900
N1060       N  0.70004823  0.37908279  0.35899369    -0.56500
N1061       N  0.75111654  0.33047695  0.38040710    -0.35900
N1062       N  0.80004409  0.38242541  0.36536343    -0.56500
C1063       C  0.72197225  0.44746319  0.33607730     0.27600
C1064       C  0.77469953  0.44924730  0.33925557     0.27600
C1065       C  0.72454740  0.31407205  0.39850736     0.27600
C1066       C  0.77796329  0.31565012  0.40097680     0.27600
C1067       C  0.68109086  0.40254591  0.33640133     0.36300
C1068       C  0.68186439  0.35143825  0.36127413     0.36300
C1069       C  0.81830052  0.40706663  0.34470491     0.36300
C1070       C  0.81968417  0.35576989  0.36881150     0.36300
C1071       C  0.73047030  0.48020112  0.34271713    -0.21200
C1072       C  0.76373224  0.48132201  0.34470776    -0.21200
C1073       C  0.73470357  0.28816203  0.43057489    -0.21200
C1074       C  0.76830565  0.28914599  0.43211966    -0.21200
C1075       C  0.65087026  0.38974470  0.32403216    -0.22300
C1076       C  0.65129445  0.35741964  0.33994495    -0.22300
C1077       C  0.84954575  0.39598996  0.33487902    -0.22300
C1078       C  0.85048259  0.36359966  0.35031091    -0.22300
C1079       C  0.68977562  0.43605216  0.33111539    -0.17600
C1080       C  0.80770983  0.44001868  0.33803814    -0.17600
C1081       C  0.81087428  0.32493189  0.39091804    -0.17600
C1082       C  0.69153342  0.32151939  0.38559749    -0.17600
H1083       H  0.71441586  0.50118585  0.34620535     0.15300
H1084       H  0.77813648  0.50331179  0.35002077     0.15300
H1085       H  0.71950898  0.27047127  0.45102050     0.15300
H1086       H  0.78382361  0.27236213  0.45404514     0.15300
H1087       H  0.63049831  0.40247800  0.30601822     0.13600
H1088       H  0.63127354  0.34032602  0.33644292     0.13600
H1089       H  0.86964168  0.40979962  0.31840484     0.13600
H1090       H  0.87150161  0.34764376  0.34794058     0.13600
H1091       H  0.75012201  0.40367774  0.32616206     0.26800
H1092       H  0.75105171  0.34990654  0.35354093     0.26800
N1093       N  0.69598884  0.12567417  0.64590171    -0.35900
N1094       N  0.74461950  0.17697227  0.63813164    -0.56500
N1095       N  0.79615864  0.12771439  0.65526049    -0.35900
N1096       N  0.74648103  0.07783825  0.67429210    -0.56500
C1097       C  0.67740760  0.15310268  0.64539234     0.27600
C1098       C  0.67836788  0.10168111  0.66949350     0.27600
C1099       C  0.81332023  0.15589480  0.66166813     0.27600
C1100       C  0.81443239  0.10242016  0.67421327     0.27600
C1101       C  0.71901448  0.19313454  0.61627669     0.36300
C1102       C  0.77127645  0.19528435  0.62764981     0.36300
C1103       C  0.72034897  0.05789578  0.67037754     0.36300
C1104       C  0.77281154  0.05810299  0.67037418     0.36300
C1105       C  0.64768694  0.14655303  0.66898293    -0.21200
C1106       C  0.64840467  0.11410713  0.68464894    -0.21200
C1107       C  0.84306305  0.14824202  0.68484790    -0.21200
C1108       C  0.84387201  0.11452561  0.69221798    -0.21200
C1109       C  0.72952273  0.22173348  0.59151897    -0.22300
C1110       C  0.76253340  0.22332445  0.59935829    -0.22300
C1111       C  0.73007707  0.02548068  0.66446331    -0.22300
C1112       C  0.76329478  0.02560813  0.66435387    -0.22300
C1113       C  0.68612152  0.18345350  0.62222588    -0.17600
C1114       C  0.68779302  0.06834067  0.67382942    -0.17600
C1115       C  0.80535884  0.06866184  0.67437573    -0.17600
C1116       C  0.80318644  0.18800371  0.64533373    -0.17600
H1117       H  0.62764126  0.16344403  0.67457445     0.15300
H1118       H  0.62893084  0.10105387  0.70441435     0.15300
H1119       H  0.86229980  0.16509668  0.69539398     0.15300
H1120       H  0.86368234  0.10057970  0.70958451     0.15300
H1121       H  0.71496811  0.23980583  0.57053584     0.13600
H1122       H  0.77836825  0.24274749  0.58530870     0.13600
H1123       H  0.71489691  0.00394982  0.66008216     0.13600
H1124       H  0.77861754  0.00413500  0.66005909     0.13600
H1125       H  0.71849391  0.12294558  0.62777627     0.26800
H1126       H  0.77373579  0.12555311  0.63676966     0.26800
N1127       N  0.00042186  0.17323187  0.87175786    -0.35900
N1128       N  0.94406269  0.13001545  0.87521954    -0.56500
N1129       N  0.98720065  0.07308642  0.87994056    -0.35900
N1130       N  0.54576067  0.11340165  0.88845106    -0.56500
C1131       C  0.97571929  0.19482693  0.87820943     0.27600
C1132       C  0.53038580  0.18452558  0.88674861     0.27600
C1133       C  0.95866954  0.05982146  0.89574008     0.27600
C1134       C  0.51321397  0.04915541  0.90032803     0.27600
C1135       C  0.93016208  0.15773001  0.85578419     0.36300
C1136       C  0.92272538  0.10538119  0.86652775     0.36300
C1137       C  0.56772585  0.13713027  0.87712424     0.36300
C1138       C  0.56065036  0.08432908  0.87915125     0.35500
C1139       C  0.98734544  0.22332106  0.90125508    -0.21200
C1140       C  0.52294691  0.21576451  0.90513221    -0.21200
C1141       C  0.96461679  0.03038004  0.92236896    -0.21200
C1142       C  0.49961827  0.02203404  0.92536237    -0.21200
C1143       C  0.89997425  0.15052968  0.83415204    -0.22300
C1144       C  0.89508151  0.11739284  0.84166478    -0.22300
C1145       C  0.59677484  0.12320237  0.86111130    -0.22300
C1146       C  0.59216489  0.08975579  0.86161058    -0.22300
C1147       C  0.94322555  0.18967993  0.86226613    -0.17600
C1148       C  0.56210198  0.17114574  0.88284151    -0.17600
C1149       C  0.54656464  0.05310495  0.88934459    -0.17600
C1150       C  0.92749801  0.07251074  0.88297063    -0.17600
H1151       H  0.97360349  0.24510094  0.91141251     0.15300
H1152       H  0.53944361  0.23355611  0.92203602     0.15300
H1153       H  0.94695600  0.01394924  0.94002726     0.15300
H1154       H  0.51222738  0.00079830  0.94145273     0.15300
H1155       H  0.88301311  0.16739733  0.81551795     0.13600
H1156       H  0.87378886  0.10368014  0.82975677     0.13600
H1157       H  0.61878466  0.13582584  0.84937783     0.13600
H1158       H  0.61008484  0.07165327  0.85023586     0.13600
H1159       H  0.99895068  0.15072662  0.85253889     0.26800
H1160       H  0.99022139  0.09405873  0.85658931     0.26800
C1161       C  0.66319558  0.26813080  0.37656699    -0.15800
C1162       C  0.66473494  0.29789692  0.39895163    -0.30900
H1163       H  0.68391348  0.25986039  0.35351490     0.13300
H1164       H  0.64361424  0.30721409  0.41985233     0.13800
C1165       C  0.83827707  0.30171911  0.40350412    -0.15800
C1166       C  0.83923368  0.27165654  0.38224650    -0.30900
H1167       H  0.85982228  0.31118895  0.42306803     0.13300
H1168       H  0.81801892  0.26330809  0.36041167     0.13800
C1169       C  0.83199596  0.46699777  0.33219951    -0.15800
C1170       C  0.85672697  0.46987076  0.36634643    -0.30900
H1171       H  0.82769807  0.48621725  0.30284889     0.13300
H1172       H  0.81588027  0.99054875  0.39065929     0.13800
C1173       C  0.66400704  0.46144425  0.32422406    -0.15800
C1174       C  0.63932694  0.46357298  0.35858904    -0.30900
H1175       H  0.66779356  0.48096895  0.29524905     0.13300
H1176       H  0.63623750  0.44451303  0.38858562     0.13800
C1177       C  0.58746195  0.26586753  0.10756104    -0.15800
C1178       C  0.59079098  0.29817685  0.11706048    -0.30900
H1179       H  0.56384493  0.25538616  0.09880014     0.13300
H1180       H  0.61492313  0.30753803  0.12580019     0.13800
C1181       C  0.91382243  0.28757174  0.15422798    -0.15800
C1182       C  0.88720191  0.28641048  0.12379012    -0.30900
H1183       H  0.91951069  0.26705996  0.18053213     0.13300
H1184       H  0.88214528  0.30631706  0.09598480     0.13800
C1185       C  0.91411164  0.45422252  0.09552602    -0.15800
C1186       C  0.91440120  0.48411283  0.11740144    -0.30900
H1187       H  0.89223370  0.44565613  0.07582194     0.13300
H1188       H  0.93574252  0.49183532  0.13948581     0.13800
C1189       C  0.60582225  0.46577131  0.12891666    -0.15800
C1190       C  0.57763045  0.46805225  0.10216226    -0.30900
H1191       H  0.61263139  0.44303456  0.14888645     0.13300
H1192       H  0.57163295  0.49108695  0.08229504     0.13800
C1193       C  0.89938635  0.02060035  0.86328245    -0.15800
C1194       C  0.89868908  0.05034861  0.88591898    -0.30900
H1195       H  0.92212737  0.51707045  0.83559633     0.13300
H1196       H  0.87668441  0.05904292  0.90501655     0.13800
C1197       C  0.56712798  0.02295788  0.88745483    -0.15800
C1198       C  0.59531189  0.02090869  0.91397597    -0.30900
H1199       H  0.55905356  0.00261793  0.86307383     0.13300
H1200       H  0.60230848  0.04096533  0.93986677     0.13800
C1201       C  0.59076685  0.19355419  0.88478189    -0.15800
C1202       C  0.59134349  0.22184727  0.85695578    -0.30900
H1203       H  0.61162461  0.18635866  0.90866774     0.13300
H1204       H  0.57084414  0.22808056  0.83157343     0.13800
C1205       C  0.89274337  0.22016106  0.88033973    -0.15800
C1206       C  0.92164384  0.21899422  0.85595844    -0.30900
H1207       H  0.88559373  0.19963328  0.90558383     0.13300
H1208       H  0.93015395  0.23994419  0.83292979     0.13800
C1209       C  0.85420958  0.03966998  0.64311796    -0.15800
C1210       C  0.83051782  0.04226899  0.67910824    -0.30900
H1211       H  0.85763482  0.05962420  0.61475990     0.13300
H1212       H  0.82647480  0.02213520  0.70687920     0.13800
C1213       C  0.66256624  0.04248511  0.67977181    -0.15800
C1214       C  0.63667033  0.04172272  0.64759831    -0.30900
H1215       H  0.66734909  0.02188536  0.70635502     0.13300
H1216       H  0.63238488  0.06182943  0.61981872     0.13800
C1217       C  0.65757402  0.23666243  0.62780758    -0.15800
C1218       C  0.65903340  0.20631884  0.60774020    -0.30900
H1219       H  0.67762726  0.24518060  0.65220424     0.13300
H1220       H  0.63827372  0.19658800  0.58633887     0.13800
C1221       C  0.85480259  0.21676234  0.62268739    -0.15800
C1222       C  0.82620209  0.21644233  0.64821026    -0.30900
H1223       H  0.86224959  0.19494560  0.60119394     0.13300
H1224       H  0.81781701  0.23869161  0.66752252     0.13800
O1225       O  0.85352254  0.90929514  0.67919154    -0.73800
O1226       O  0.83737784  0.83691314  0.77530768    -0.73800
O1227       O  0.83538847  0.90366430  0.78115660    -0.73800
O1228       O  0.85579717  0.84033907  0.67268503    -0.73900
O1229       O  0.90807814  0.84162724  0.69596650    -0.73800
O1230       O  0.88784427  0.90412964  0.80376037    -0.73800
O1231       O  0.88978198  0.83688026  0.79811141    -0.73800
O1232       O  0.90588633  0.90876553  0.70208278    -0.73800
Ni1233     Ni  0.84368123  0.87247036  0.72577357     1.25400
Ni1234     Ni  0.89968093  0.87282313  0.75079751     1.25400
C1235       C  0.88201203  0.92215344  0.67741181     0.88400
C1236       C  0.86106903  0.82490640  0.80220333     0.88400
C1237       C  0.85879537  0.91506357  0.80896397     0.88400
C1238       C  0.88501325  0.82933751  0.66850824     0.88600
O1239       O  0.65573845  0.91042502  0.79666371    -0.73800
O1240       O  0.64032312  0.84963163  0.68412432    -0.73800
O1241       O  0.63822185  0.91700648  0.69465569    -0.73800
O1242       O  0.65813757  0.84414554  0.78652230    -0.73900
O1243       O  0.60561244  0.84114504  0.80803587    -0.73800
O1244       O  0.58562677  0.91299729  0.71536648    -0.73800
O1245       O  0.58784814  0.84650977  0.70571392    -0.73800
O1246       O  0.60313486  0.90831476  0.81781601    -0.73800
Ni1247     Ni  0.64994090  0.88045083  0.73942949     1.25400
Ni1248     Ni  0.59371449  0.87714629  0.76267054     1.25400
C1249       C  0.63175665  0.91998543  0.82485647     0.88400
C1250       C  0.61201390  0.83697662  0.67787075     0.88400
C1251       C  0.60891154  0.92754112  0.69140009     0.88400
C1252       C  0.63476533  0.83012966  0.81116581     0.88600
O1253       O  0.97539316  0.71525982  0.45784604    -0.73800
O1254       O  0.53628615  0.73547682  0.55611182    -0.73800
O1255       O  0.97367953  0.73351608  0.55981112    -0.73800
O1256       O  0.53223058  0.71646811  0.45410985    -0.73900
O1257       O  0.53282270  0.76955919  0.43110830    -0.73800
O1258       O  0.97331693  0.78640602  0.53560451    -0.73800
O1259       O  0.53434740  0.78854998  0.53342783    -0.73800
O1260       O  0.97586120  0.76815869  0.43369146    -0.73800
Ni1261     Ni  0.00804145  0.72267622  0.51133051     1.25400
Ni1262     Ni  0.00812217  0.77936968  0.48582300     1.25400
C1263       C  0.96370934  0.73918010  0.43044843     0.88400
C1264       C  0.54751894  0.76489275  0.55959254     0.88400
C1265       C  0.96109284  0.76237967  0.56197177     0.88400
C1266       C  0.54386203  0.74010449  0.42647397     0.88600
C1267       C  0.87925005  0.74485037  0.61510790     0.80900
N1268       N  0.90897721  0.74137078  0.59274473    -0.77400
C1269       C  0.93030738  0.76680375  0.59112509     0.83300
N1270       N  0.92189239  0.79613485  0.61314513    -0.77400
C1271       C  0.89209105  0.79998901  0.63609849     0.83400
N1272       N  0.87085825  0.77426919  0.63676385    -0.79100
C1273       C  0.63141403  0.75825531  0.61459967     0.80900
N1274       N  0.60284524  0.75029019  0.59030024    -0.77400
C1275       C  0.57714609  0.77167352  0.59144621     0.83300
N1276       N  0.58006889  0.80064610  0.61827664    -0.77400
C1277       C  0.60860430  0.80839835  0.64272702     0.83400
N1278       N  0.63393220  0.78725346  0.64013322    -0.79100
O1279       O  0.96720950  0.52263164  0.56045072    -0.73800
O1280       O  0.52993249  0.53619138  0.45381123    -0.73800
O1281       O  0.96919504  0.53790286  0.45607338    -0.73800
O1282       O  0.53097496  0.52199987  0.55820080    -0.73900
O1283       O  0.52932016  0.96869801  0.54930053    -0.73800
O1284       O  0.96132642  0.98154733  0.43548388    -0.73800
O1285       O  0.53434506  0.98329807  0.44588169    -0.73800
O1286       O  0.96200358  0.96751511  0.53984528    -0.73800
Ni1287     Ni  0.00122257  0.53192598  0.51003131     1.25400
Ni1288     Ni  0.99482969  0.97284616  0.48707737     1.25400
C1289       C  0.95027403  0.99238075  0.56393589     0.88400
C1290       C  0.54093922  0.51110958  0.42924351     0.88400
C1291       C  0.95770759  0.51328779  0.43117258     0.88400
C1292       C  0.53939774  0.99380361  0.57471903     0.88600
C1293       C  0.61451641  0.01353066  0.64536770     0.80900
N1294       N  0.59161464  0.51428516  0.60439915    -0.77400
C1295       C  0.56670909  0.99048624  0.61097272     0.83300
N1296       N  0.57417844  0.96115463  0.63397610    -0.77400
C1297       C  0.60197980  0.95800403  0.66265654     0.83400
N1298       N  0.62220412  0.98414544  0.66810593    -0.79100
C1299       C  0.87539870  0.01043036  0.63761558     0.80900
N1300       N  0.86771914  0.98024723  0.65832797    -0.77400
C1301       C  0.88762527  0.95384184  0.64960735     0.83300
N1302       N  0.91505518  0.95794556  0.62024188    -0.77400
C1303       C  0.92243831  0.98792540  0.59928335     0.83400
N1304       N  0.90257485  0.01383323  0.60809627    -0.79100
O1305       O  0.78200914  0.71284951  0.03170847    -0.73800
O1306       O  0.71341622  0.72816183  0.93001028    -0.73800
O1307       O  0.78048568  0.72927947  0.92781886    -0.73800
O1308       O  0.71598949  0.71200179  0.03388143    -0.73900
O1309       O  0.71562952  0.76561725  0.05251775    -0.73800
O1310       O  0.77939972  0.78291538  0.94624125    -0.73800
O1311       O  0.71369912  0.78169056  0.94901909    -0.73800
O1312       O  0.78194740  0.76652188  0.04966022    -0.73800
Ni1313     Ni  0.74798019  0.71865112  0.97985285     1.25400
Ni1314     Ni  0.74762050  0.77601137  0.00020971     1.25400
C1315       C  0.79374866  0.73755422  0.05643351     0.88400
C1316       C  0.70174415  0.75727443  0.92396240     0.88400
C1317       C  0.79138659  0.75860324  0.92116249     0.88400
C1318       C  0.70472163  0.73641849  0.05972978     0.88600
C1319       C  0.87488926  0.74697901  0.87567070     0.80900
N1320       N  0.84539498  0.74181134  0.89744294    -0.77400
C1321       C  0.82091431  0.76351503  0.88997110     0.83300
N1322       N  0.82595701  0.79103310  0.85998041    -0.77400
C1323       C  0.85554673  0.79623457  0.83704767     0.83400
N1324       N  0.88004497  0.77422231  0.84532110    -0.79100
C1325       C  0.62078898  0.74659514  0.86204051     0.80900
N1326       N  0.64902213  0.73984904  0.88818687    -0.77400
C1327       C  0.67302867  0.76290014  0.89017657     0.83300
N1328       N  0.66861875  0.79265252  0.86581402    -0.77400
C1329       C  0.64034950  0.79921162  0.83980717     0.83400
N1330       N  0.61671987  0.77620262  0.83834321    -0.79100
O1331       O  0.91311917  0.66189510  0.28943988    -0.73800
O1332       O  0.89486237  0.59718252  0.18464860    -0.73800
O1333       O  0.89363362  0.66445576  0.18686209    -0.73800
O1334       O  0.91321671  0.59504050  0.28668886    -0.73900
O1335       O  0.86093782  0.59375108  0.30989671    -0.73800
O1336       O  0.84129569  0.66245713  0.20955626    -0.73800
O1337       O  0.84253486  0.59573080  0.20767044    -0.73800
O1338       O  0.86082588  0.66191577  0.31255455    -0.73800
Ni1339     Ni  0.90550375  0.62975986  0.23594446     1.25400
Ni1340     Ni  0.84956376  0.62854167  0.26109873     1.25400
C1341       C  0.88987535  0.67321338  0.31741490     0.88400
C1342       C  0.86636701  0.58488696  0.18023043     0.88400
C1343       C  0.86428038  0.67491677  0.18198029     0.88400
C1344       C  0.88981768  0.58199172  0.31284009     0.88600
O1345       O  0.71793251  0.95713612  0.96806526    -0.73800
O1346       O  0.78743740  0.97676804  0.06574916    -0.73800
O1347       O  0.71874505  0.97531569  0.06952351    -0.73800
O1348       O  0.78422754  0.95839659  0.96317948    -0.73900
O1349       O  0.78399210  0.51669536  0.93834077    -0.73800
O1350       O  0.72155218  0.53190864  0.04816361    -0.73800
O1351       O  0.78736301  0.53465280  0.04065417    -0.73800
O1352       O  0.71698033  0.51372742  0.94674002    -0.73800
Ni1353     Ni  0.75228116  0.96501284  0.01789166     1.25400
Ni1354     Ni  0.75240838  0.52604872  0.99241539     1.25400
C1355       C  0.70457529  0.98111342  0.94309059     0.88400
C1356       C  0.80153737  0.51133944  0.06605309     0.88400
C1357       C  0.71137393  0.50753712  0.07577528     0.88400
C1358       C  0.79468103  0.98245575  0.93488391     0.88600
C1359       C  0.61943412  0.99468860  0.90526394     0.80900
N1360       N  0.64943200  0.99856090  0.92620174    -0.77400
C1361       C  0.67328981  0.97640813  0.91682634     0.83300
N1362       N  0.66722131  0.95003369  0.88567028    -0.77400
C1363       C  0.63718964  0.94602582  0.86386605     0.83400
N1364       N  0.61331348  0.96840699  0.87371524    -0.79100
C1365       C  0.87293168  0.99631665  0.86655779     0.80900
N1366       N  0.84726917  0.50647978  0.89267825    -0.77400
C1367       C  0.82239138  0.97751552  0.89877984     0.83300
N1368       N  0.82636700  0.94874988  0.87177070    -0.77400
C1369       C  0.85379565  0.94395418  0.84253704     0.83400
N1370       N  0.87684643  0.96761084  0.84078349    -0.79100
O1371       O  0.60749823  0.65710049  0.17947847    -0.73800
O1372       O  0.58620245  0.58905614  0.27962916    -0.73800
O1373       O  0.58592382  0.65631391  0.27994362    -0.73800
O1374       O  0.60778631  0.58891234  0.17931306    -0.73900
O1375       O  0.65949088  0.58981663  0.20612103    -0.73800
O1376       O  0.63752245  0.65578048  0.30731209    -0.73800
O1377       O  0.63799464  0.58794336  0.30606339    -0.73800
O1378       O  0.65906486  0.65661774  0.20712079    -0.73800
Ni1379     Ni  0.59502234  0.62284398  0.22833872     1.25400
Ni1380     Ni  0.65026460  0.62255708  0.25785624     1.25400
C1381       C  0.63636546  0.66895160  0.17854782     0.88400
C1382       C  0.60905197  0.57635658  0.30752515     0.88400
C1383       C  0.60878251  0.66801082  0.30865387     0.88400
C1384       C  0.63685199  0.57737265  0.17797070     0.88600
C1385       C  0.62951234  0.49266767  0.12854037     0.80900
N1386       N  0.65975160  0.48724131  0.10925172    -0.77400
C1387       C  0.68195299  0.51187815  0.10787603     0.83300
N1388       N  0.67404398  0.54188502  0.12779147    -0.77400
C1389       C  0.64388739  0.54728114  0.14817786     0.83400
N1390       N  0.62153029  0.52272427  0.14768288    -0.79100
C1391       C  0.88588434  0.50623393  0.11728760     0.80900
N1392       N  0.85716755  0.49799265  0.09403711    -0.77400
C1393       C  0.83120685  0.51880260  0.09653336     0.83300
N1394       N  0.83393073  0.54771737  0.12335405    -0.77400
C1395       C  0.86259438  0.55570363  0.14699321     0.83400
N1396       N  0.88828922  0.53501562  0.14336719    -0.79100
C1397       C  0.87171754  0.75704840  0.12049715     0.80900
N1398       N  0.84405879  0.75925810  0.09172245    -0.77400
C1399       C  0.82281792  0.73381224  0.09012428     0.83300
N1400       N  0.82933273  0.70570476  0.11827627    -0.77400
C1401       C  0.85738382  0.70335936  0.14723212     0.83400
N1402       N  0.87838651  0.72901150  0.14787491    -0.79100
C1403       C  0.62879085  0.75416845  0.12946929     0.80900
N1404       N  0.65611806  0.75743535  0.10048447    -0.77400
C1405       C  0.67698804  0.73195146  0.09508626     0.83300
N1406       N  0.67047941  0.70261018  0.11916208    -0.77400
C1407       C  0.64278830  0.69908990  0.14817621     0.83400
N1408       N  0.62199232  0.72489320  0.15311831    -0.79100
C1409       C  0.61670495  0.49162159  0.35968926     0.80900
N1410       N  0.58941964  0.48894840  0.38906461    -0.77400
C1411       C  0.56859004  0.51460261  0.39340771     0.83300
N1412       N  0.57503749  0.54343612  0.36783474    -0.77400
C1413       C  0.60258019  0.54640467  0.33840695     0.83400
N1414       N  0.62341986  0.52051052  0.33460909    -0.79100
C1415       C  0.87999774  0.49728823  0.36564717     0.80900
N1416       N  0.90795292  0.49335936  0.39294924    -0.77400
C1417       C  0.92984447  0.51798261  0.39603981     0.83300
N1418       N  0.92379977  0.54724337  0.37127463    -0.77400
C1419       C  0.89566448  0.55154984  0.34350099     0.83400
N1420       N  0.87368252  0.52651640  0.34099475    -0.79100
C1421       C  0.88066348  0.75411918  0.38091680     0.80900
N1422       N  0.91062304  0.75875852  0.40185786    -0.77400
C1423       C  0.93340392  0.73461380  0.39992794     0.83300
N1424       N  0.92634666  0.70589966  0.37469678    -0.77400
C1425       C  0.89640408  0.70146025  0.35222779     0.83400
N1426       N  0.87358734  0.72551264  0.35613082    -0.79100
C1427       C  0.62497433  0.74923885  0.36598107     0.80900
N1428       N  0.62803116  0.72060366  0.33960189    -0.77400
C1429       C  0.60371017  0.69818307  0.33945837     0.83300
N1430       N  0.57561211  0.70464838  0.36610305    -0.77400
C1431       C  0.57221872  0.73373681  0.39247778     0.83400
N1432       N  0.59704287  0.75579240  0.39245307    -0.79100
N1433       N  0.00200528  0.92192360  0.12219471    -0.35900
N1434       N  0.95182754  0.87185028  0.13454827    -0.56500
N1435       N  0.00076576  0.82340829  0.16763630    -0.35900
N1436       N  0.54984867  0.86751190  0.13315449    -0.56500
C1437       C  0.97583393  0.93784076  0.10142217     0.27600
C1438       C  0.52812219  0.93315105  0.09216618     0.27600
C1439       C  0.97500052  0.80386729  0.15758760     0.27600
C1440       C  0.52497716  0.80065234  0.15935809     0.27600
C1441       C  0.93287189  0.89899583  0.13201842     0.36300
C1442       C  0.93257340  0.84718803  0.15220908     0.36300
C1443       C  0.56933122  0.89417441  0.12948588     0.36300
C1444       C  0.56767907  0.84365836  0.15699963     0.36300
C1445       C  0.98652459  0.96359589  0.06966616    -0.21200
C1446       C  0.51875906  0.95963141  0.06065034    -0.21200
C1447       C  0.98539767  0.77171376  0.15048107    -0.21200
C1448       C  0.51496398  0.76836845  0.15272221    -0.21200
C1449       C  0.90153850  0.89148345  0.14834667    -0.22300
C1450       C  0.90137076  0.85865257  0.16107270    -0.22300
C1451       C  0.59960387  0.88714074  0.15114762    -0.22300
C1452       C  0.59848042  0.85520039  0.16876833    -0.22300
C1453       C  0.94266332  0.92976876  0.11112791    -0.17600
C1454       C  0.56090238  0.92420694  0.10433241    -0.17600
C1455       C  0.55763245  0.81064237  0.16312321    -0.17600
C1456       C  0.94226174  0.81396060  0.15651810    -0.17600
H1457       H  0.97169188  0.98087437  0.04746455     0.15300
H1458       H  0.53446818  0.97674754  0.03998644     0.15300
H1459       H  0.97069385  0.75036478  0.14176111     0.15300
H1460       H  0.53001642  0.74668525  0.14858024     0.15300
H1461       H  0.88081506  0.90785128  0.15040478     0.13600
H1462       H  0.88059152  0.84477260  0.17491302     0.13600
H1463       H  0.62040847  0.90329478  0.15397445     0.13600
H1464       H  0.61823995  0.84181622  0.18738863     0.13600
H1465       H  0.00128201  0.90271912  0.14951629     0.26800
H1466       H  0.00004213  0.84825064  0.17709248     0.26800
N1467       N  0.75434789  0.91983429  0.38106807    -0.35900
N1468       N  0.70059483  0.87384357  0.39016961    -0.56500
N1469       N  0.74652281  0.81993300  0.40934670    -0.35900
N1470       N  0.80048977  0.86568666  0.39369984    -0.56500
C1471       C  0.72969877  0.93720993  0.35886048     0.27600
C1472       C  0.78246431  0.93299109  0.36303728     0.27600
C1473       C  0.71864379  0.80250925  0.40491211     0.27600
C1474       C  0.77166534  0.79839287  0.40726267     0.27600
C1475       C  0.68330716  0.90211803  0.38617082     0.36300
C1476       C  0.67912435  0.84962593  0.40137329     0.36300
C1477       C  0.82032680  0.89177768  0.40051571     0.36300
C1478       C  0.81635692  0.83930500  0.41387578     0.36300
C1479       C  0.74227921  0.96155704  0.32609423    -0.21200
C1480       C  0.77555306  0.95851744  0.32800850    -0.21200
C1481       C  0.72624280  0.76926298  0.40185776    -0.21200
C1482       C  0.75955415  0.76672497  0.40258589    -0.21200
C1483       C  0.65054539  0.89557974  0.39369665    -0.22300
C1484       C  0.64794717  0.86251291  0.40356409    -0.22300
C1485       C  0.84885193  0.88197908  0.42536079    -0.22300
C1486       C  0.84630321  0.84871577  0.43388056    -0.22300
C1487       C  0.69639168  0.93295739  0.37044648    -0.17600
C1488       C  0.81392085  0.92363210  0.38052896    -0.17600
C1489       C  0.80511969  0.80649278  0.41095688    -0.17600
C1490       C  0.68657142  0.81565632  0.40491364    -0.17600
H1491       H  0.72901430  0.97955705  0.30282437     0.15300
H1492       H  0.79263898  0.97358558  0.30618636     0.15300
H1493       H  0.70971069  0.74867862  0.39952409     0.15300
H1494       H  0.77308752  0.74394659  0.40037153     0.15300
H1495       H  0.63021627  0.91232022  0.39016508     0.13600
H1496       H  0.62541783  0.84936740  0.40986440     0.13600
H1497       H  0.86941223  0.89710269  0.43613087     0.13600
H1498       H  0.86444026  0.83320073  0.45262975     0.13600
H1499       H  0.75221162  0.90165996  0.41010825     0.26800
H1500       H  0.74826914  0.84506418  0.41495334     0.26800
N1501       N  0.69863747  0.62431285  0.63706380    -0.35900
N1502       N  0.74619156  0.67623982  0.62839299    -0.56500
N1503       N  0.79866126  0.62805864  0.64896735    -0.35900
N1504       N  0.74988056  0.57761545  0.66837483    -0.56500
C1505       C  0.67935592  0.65130669  0.63550068     0.27600
C1506       C  0.68126092  0.59990908  0.66003911     0.27600
C1507       C  0.81461559  0.65689572  0.65582141     0.27600
C1508       C  0.81682228  0.60381157  0.67155007     0.27600
C1509       C  0.72046931  0.69152331  0.60526459     0.36300
C1510       C  0.77273372  0.69434102  0.61635425     0.36300
C1511       C  0.72426079  0.55701447  0.66436027     0.36300
C1512       C  0.77669634  0.55837935  0.66711147     0.36300
C1513       C  0.64945187  0.64398872  0.65787580    -0.21200
C1514       C  0.65072609  0.61157727  0.67365076    -0.21200
C1515       C  0.84330205  0.65077621  0.68333787    -0.21200
C1516       C  0.84484994  0.61726919  0.69265282    -0.21200
C1517       C  0.73080375  0.71928817  0.57796291    -0.22300
C1518       C  0.76384346  0.72128702  0.58550054    -0.22300
C1519       C  0.73480658  0.52468791  0.66114560    -0.22300
C1520       C  0.76801054  0.52555169  0.66272308    -0.22300
C1521       C  0.68763802  0.68190181  0.61241922    -0.17600
C1522       C  0.69141246  0.56679800  0.66523122    -0.17600
C1523       C  0.80887565  0.56980033  0.67238450    -0.17600
C1524       C  0.80448068  0.68817727  0.63581157    -0.17600
H1525       H  0.62885420  0.66030204  0.66249211     0.15300
H1526       H  0.63124612  0.59803642  0.69252972     0.15300
H1527       H  0.86133980  0.66852493  0.69555082     0.15300
H1528       H  0.86412413  0.60436071  0.71339534     0.15300
H1529       H  0.71609827  0.73653565  0.55549084     0.13600
H1530       H  0.77956629  0.74034059  0.56987356     0.13600
H1531       H  0.72018523  0.50270799  0.65756064     0.13600
H1532       H  0.78386489  0.50433149  0.66074277     0.13600
H1533       H  0.72152369  0.62201385  0.62010364     0.26800
H1534       H  0.77729101  0.62481429  0.62766703     0.26800
N1535       N  0.00596643  0.67388551  0.86440377    -0.35900
N1536       N  0.94934576  0.63138784  0.87362217    -0.56500
N1537       N  0.99159594  0.57402535  0.87212054    -0.35900
N1538       N  0.54628452  0.61618588  0.88965229    -0.56500
C1539       C  0.98189484  0.69547964  0.87494928     0.27600
C1540       C  0.53103548  0.68746998  0.88833132     0.27600
C1541       C  0.96350265  0.56075984  0.88994678     0.27600
C1542       C  0.51387624  0.55230357  0.90103206     0.27600
C1543       C  0.93528592  0.65937686  0.85578652     0.36300
C1544       C  0.92736860  0.60722501  0.86616448     0.36300
C1545       C  0.56820491  0.63995101  0.87860238     0.36300
C1546       C  0.56116099  0.58723254  0.87955038     0.35500
C1547       C  0.99459917  0.72328641  0.89854763    -0.21200
C1548       C  0.52359115  0.71889773  0.90584153    -0.21200
C1549       C  0.96993347  0.53062731  0.91405537    -0.21200
C1550       C  0.50029864  0.52570392  0.92742126    -0.21200
C1551       C  0.90436319  0.65285991  0.83651534    -0.22300
C1552       C  0.89918248  0.61980246  0.84382465    -0.22300
C1553       C  0.59716430  0.62617898  0.86180949    -0.22300
C1554       C  0.59255540  0.59275262  0.86161703    -0.22300
C1555       C  0.94900350  0.69097280  0.86180600    -0.17600
C1556       C  0.56271817  0.67383277  0.88551050    -0.17600
C1557       C  0.54721287  0.55604815  0.88994447    -0.17600
C1558       C  0.93214630  0.57421087  0.88124792    -0.17600
H1559       H  0.98146278  0.74485788  0.91152295     0.15300
H1560       H  0.54007125  0.73679259  0.92250675     0.15300
H1561       H  0.95266571  0.51396919  0.93219892     0.15300
H1562       H  0.51293558  0.50485913  0.94473689     0.15300
H1563       H  0.88713478  0.67012623  0.81957965     0.13600
H1564       H  0.87736365  0.60649218  0.83333791     0.13600
H1565       H  0.61912147  0.63891232  0.85011045     0.13600
H1566       H  0.61040805  0.57471114  0.84973527     0.13600
H1567       H  0.00346541  0.65196361  0.84375899     0.26800
H1568       H  0.99407131  0.59547175  0.84979192     0.26800
C1569       C  0.65246459  0.77231395  0.36589486    -0.15800
C1570       C  0.65852330  0.79261256  0.40634164    -0.30900
H1571       H  0.66938587  0.77127284  0.33292214     0.13300
H1572       H  0.64178189  0.79387282  0.43951285     0.13800
C1573       C  0.82946282  0.77912421  0.41065326    -0.15800
C1574       C  0.85691107  0.78102359  0.38197971    -0.30900
H1575       H  0.82421165  0.75652567  0.43221691     0.13300
H1576       H  0.86269949  0.80323150  0.35979604     0.13800
C1577       C  0.84195465  0.94679789  0.37548257    -0.15800
C1578       C  0.83926665  0.97941553  0.38220941    -0.30900
H1579       H  0.86582305  0.93661025  0.36711928     0.13300
H1580       H  0.86026355  0.45104333  0.39662763     0.13800
C1581       C  0.67430717  0.96183250  0.36293542    -0.15800
C1582       C  0.65437302  0.97177413  0.40177264    -0.30900
H1583       H  0.67451263  0.97509846  0.32544763     0.13300
H1584       H  0.65404449  0.95832271  0.43914727     0.13800
C1585       C  0.60642738  0.78218348  0.13212221    -0.15800
C1586       C  0.58250538  0.78429281  0.16780527    -0.30900
H1587       H  0.60935052  0.80154729  0.10258376     0.13300
H1588       H  0.57879579  0.76452350  0.19637733     0.13800
C1589       C  0.91737430  0.78765250  0.15869631    -0.15800
C1590       C  0.89405221  0.78519783  0.12179538    -0.30900
H1591       H  0.92044455  0.76820548  0.18807540     0.13300
H1592       H  0.89141668  0.80423856  0.09163171     0.13800
C1593       C  0.91590556  0.95318155  0.09653802    -0.15800
C1594       C  0.91375796  0.98299548  0.11852893    -0.30900
H1595       H  0.89517369  0.94369357  0.07478005     0.13300
H1596       H  0.93407919  0.99168181  0.14217265     0.13800
C1597       C  0.58970626  0.97723975  0.11132569    -0.15800
C1598       C  0.58858345  0.94686463  0.09131407    -0.30900
H1599       H  0.56822434  0.98642203  0.13147126     0.13300
H1600       H  0.61040283  0.93656800  0.07375636     0.13800
C1601       C  0.90168499  0.52412703  0.86031557    -0.15800
C1602       C  0.90303606  0.55271363  0.88621892    -0.30900
H1603       H  0.92098385  0.01329788  0.84154239     0.13300
H1604       H  0.88233221  0.56118666  0.90904756     0.13800
C1605       C  0.56784096  0.52589081  0.88868478    -0.15800
C1606       C  0.59619789  0.52409964  0.91489583    -0.30900
H1607       H  0.55956640  0.50521554  0.86522814     0.13300
H1608       H  0.60339669  0.54448069  0.93995734     0.13800
C1609       C  0.59166113  0.69571060  0.88886220    -0.15800
C1610       C  0.59358693  0.72321174  0.85950951    -0.30900
H1611       H  0.61203121  0.68821475  0.91361862     0.13300
H1612       H  0.57351496  0.72963098  0.83331876     0.13800
C1613       C  0.89997085  0.72189000  0.88462472    -0.15800
C1614       C  0.92779167  0.72044178  0.85737663    -0.30900
H1615       H  0.89405079  0.70201126  0.91201641     0.13300
H1616       H  0.93498543  0.74050914  0.83129318     0.13800
C1617       C  0.85918809  0.54148424  0.64518504    -0.15800
C1618       C  0.83466474  0.54417543  0.67974982    -0.30900
H1619       H  0.86292315  0.56117439  0.61645920     0.13300
H1620       H  0.83038463  0.52428066  0.70786033     0.13800
C1621       C  0.66651706  0.54051469  0.66972699    -0.15800
C1622       C  0.64170989  0.53901459  0.63535960    -0.30900
H1623       H  0.67041292  0.52063367  0.69806062     0.13300
H1624       H  0.63845252  0.55847545  0.60605549     0.13800
C1625       C  0.65984203  0.73589619  0.61720552    -0.15800
C1626       C  0.66028654  0.70494901  0.59912342    -0.30900
H1627       H  0.68087561  0.74479451  0.63887921     0.13300
H1628       H  0.63859415  0.69501316  0.58061903     0.13800
C1629       C  0.85710640  0.71606389  0.61626353    -0.15800
C1630       C  0.82713070  0.71693765  0.63726185    -0.30900
H1631       H  0.86568516  0.69335565  0.59859708     0.13300
H1632       H  0.81777971  0.74004408  0.65240212     0.13800
loop_ 
_geom_bond_atom_site_label_1 
_geom_bond_atom_site_label_2 
_geom_bond_distance 
_geom_bond_site_symmetry_2 
_ccdc_geom_bond_type 
O1           Ni9   1.940       .  S
O1           C11   1.286       .  A
O2           Ni9   1.923       .  S
O2           C12   1.281       .  A
O3           Ni9   1.921       .  S
O3           C13   1.279       .  A
O4           Ni9   1.936       .  S
O4           C14   1.285       .  A
O5          Ni10   1.919       .  S
O5           C14   1.280       .  A
O6          Ni10   1.922       .  S
O6           C13   1.284       .  A
O7          Ni10   1.927       .  S
O7           C12   1.283       .  A
O8          Ni10   1.923       .  S
O8           C11   1.281       .  A
Ni9         Ni10   2.388       .  S
C11          C77   1.482       .  S
C12          C99   1.475       .  S
C13         C145   1.468       .  S
C14          C47   1.479       .  S
O15         Ni23   1.903       .  S
O15          C25   1.278       .  A
O16         Ni23   1.915       .  S
O16          C26   1.283       .  A
O17         Ni23   1.919       .  S
O17          C27   1.281       .  A
O18         Ni23   1.917       .  S
O18          C28   1.279       .  A
O19         Ni24   1.918       .  S
O19          C28   1.283       .  A
O20         Ni24   1.907       .  S
O20          C27   1.278       .  A
O21         Ni24   1.920       .  S
O21          C26   1.279       .  A
O22         Ni24   1.924       .  S
O22          C25   1.283       .  A
Ni23        Ni24   2.393       .  S
C25         C139   1.461       .  S
C26          C53   1.464       .  S
C27          C73   1.458       .  S
C28         C105   1.464       .  S
O29         Ni37   1.935       .  S
O29          C39   1.284       .  A
O30        Ni853   1.934       .  S
O30          C40   1.284       .  A
O31         Ni37   1.920       .  S
O31          C41   1.282       .  A
O32        Ni853   1.913       .  S
O32          C42   1.280       .  A
O33        Ni854   1.947       .  S
O33          C42   1.286       .  A
O34         Ni38   1.930       .  S
O34          C41   1.282       .  A
O35        Ni854   1.927       .  S
O35          C40   1.282       .  A
O36         Ni38   1.943       .  S
O36          C39   1.285       .  A
Ni37        O846   1.940       .  S
Ni37        O848   1.919       .  S
Ni37        Ni38   2.385       .  S
Ni38        O849   1.950       .  S
Ni38        O851   1.925       .  S
C39         C199   1.493       .  S
C40          C51   1.481       .  S
C41          C45   1.475       .  S
C42         C207   1.483       .  S
C43          N44   1.356       .  A
C43          N48   1.363       .  A
C43         C405   1.488       .  S
N44          C45   1.358       .  A
C45          N46   1.362       .  A
N46          C47   1.365       .  A
C47          N48   1.366       .  A
C49          N50   1.364       .  A
C49          N54   1.347       .  A
C49         C401   1.475       .  S
N50          C51   1.369       .  A
C51          N52   1.367       .  A
N52          C53   1.363       .  A
C53          N54   1.348       .  A
O55         Ni63   1.923       .  S
O55         C473   1.284   1_545  A
O56        Ni879   1.915   1_455  S
O56          C66   1.279       .  A
O57         Ni63   1.905       .  S
O57          C67   1.276       .  A
O58        Ni879   1.914   1_455  S
O58         C476   1.281   1_545  A
O59        Ni880   1.915       .  S
O59          C68   1.280       .  A
O60         Ni64   1.914       .  S
O60         C475   1.283       .  A
O61        Ni880   1.913       .  S
O61         C474   1.281       .  A
O62         Ni64   1.910       .  S
O62          C65   1.277       .  A
Ni63        O872   1.920       .  S
Ni63        O874   1.905       .  S
Ni63       Ni472   2.393   1_545  S
Ni64        O875   1.915       .  S
Ni64        O877   1.911       .  S
Ni64       Ni471   2.394       .  S
C65         O463   1.285       .  A
C65          C79   1.467       .  S
C66         O469   1.283   1_545  A
C66         C187   1.464       .  S
C67         O468   1.283   1_545  A
C67         C193   1.458       .  S
C68         O466   1.280       .  A
C68          C71   1.461       .  S
C69          N74   1.357       .  A
C69         N478   1.353       .  A
C69         C806   1.470       .  S
N70         C477   1.352       .  A
N70         C479   1.356   1_545  A
C71          N72   1.358       .  A
C71         N478   1.356       .  A
N72          C73   1.359       .  A
C73          N74   1.357       .  A
C75          N76   1.365       .  A
C75          N80   1.351       .  A
C75         C801   1.477       .  S
N76          C77   1.366       .  A
C77          N78   1.364       .  A
N78          C79   1.363       .  A
C79          N80   1.352       .  A
O81         Ni89   1.920   1_554  S
O81          C91   1.279       .  A
O82         Ni89   1.931       .  S
O82          C92   1.283       .  A
O83         Ni89   1.926       .  S
O83          C93   1.285       .  A
O84         Ni89   1.915   1_554  S
O84          C94   1.279       .  A
O85         Ni90   1.909       .  S
O85          C94   1.281       .  A
O86         Ni90   1.909   1_556  S
O86          C93   1.276       .  A
O87         Ni90   1.920   1_556  S
O87          C92   1.281       .  A
O88         Ni90   1.924       .  S
O88          C91   1.284       .  A
Ni89        Ni90   2.391   1_556  S
C91         C175   1.469       .  S
C92         C103   1.476       .  S
C93          C97   1.464       .  S
C94         C181   1.457       .  S
C95          N96   1.350       .  A
C95         N100   1.361       .  A
C95         C389   1.470       .  S
N96          C97   1.350       .  A
C97          N98   1.362       .  A
N98          C99   1.365       .  A
C99         N100   1.364       .  A
C101        N102   1.363       .  A
C101        N106   1.350       .  A
C101        C386   1.473       .  S
N102        C103   1.366       .  A
C103        N104   1.364       .  A
N104        C105   1.360       .  A
C105        N106   1.350       .  A
O107       Ni115   1.921       .  S
O107        C117   1.279       .  A
O108       Ni115   1.921       .  S
O108        C118   1.284       .  A
O109       Ni115   1.926       .  S
O109        C119   1.284       .  A
O110       Ni115   1.918       .  S
O110        C120   1.280       .  A
O111       Ni116   1.923       .  S
O111        C120   1.282       .  A
O112       Ni116   1.919       .  S
O112        C119   1.280       .  A
O113       Ni116   1.911       .  S
O113        C118   1.277       .  A
O114       Ni116   1.919       .  S
O114        C117   1.284       .  A
Ni115      Ni116   2.391       .  S
C117        C201   1.469       .  S
C118        C171   1.464       .  S
C119        C177   1.472       .  S
C120        C195   1.467       .  S
O121       Ni129   1.909   1_556  S
O121        C131   1.278       .  A
O122       Ni129   1.928       .  S
O122        C540   1.284       .  A
O123       Ni129   1.943       .  S
O123        C541   1.286       .  A
O124       Ni129   1.929   1_556  S
O124        C134   1.282       .  A
O125       Ni130   1.922       .  S
O125        C542   1.282   1_545  A
O126       Ni130   1.918   1_554  S
O126        C133   1.280       .  A
O127       Ni130   1.916   1_554  S
O127        C132   1.280       .  A
O128       Ni130   1.918       .  S
O128        C539   1.281   1_545  A
Ni129      Ni538   2.390   1_554  S
Ni130      Ni537   2.388   1_546  S
C131        O536   1.281       .  A
C131        C137   1.456       .  S
C132        O530   1.286   1_545  A
C132        C169   1.483       .  S
C133        O531   1.286   1_545  A
C133        C163   1.485       .  S
C134        O533   1.283       .  A
C134        C143   1.478       .  S
C135        N136   1.351       .  A
C135        N140   1.358       .  A
C135        C790   1.467       .  S
N136        C137   1.352       .  A
C137        N138   1.357       .  A
N138        C139   1.361       .  A
C139        N140   1.360       .  A
C141        N146   1.350       .  A
C141        N550   1.360       .  A
C141        C785   1.471       .  S
N142        C549   1.360   1_545  A
N142        C551   1.365   1_545  A
C143        N144   1.368       .  A
C143        N550   1.363       .  A
N144        C145   1.365       .  A
C145        N146   1.352       .  A
O147       Ni155   1.920       .  S
O147        C157   1.281       .  A
O148       Ni155   1.915       .  S
O148        C158   1.279       .  A
O149       Ni155   1.915       .  S
O149        C159   1.279       .  A
O150       Ni155   1.922       .  S
O150        C160   1.285       .  A
O151       Ni156   1.907       .  S
O151        C160   1.276       .  A
O152       Ni156   1.911       .  S
O152        C159   1.281       .  A
O153       Ni156   1.929       .  S
O153        C158   1.284       .  A
O154       Ni156   1.921       .  S
O154        C157   1.281       .  A
Ni155      Ni156   2.392       .  S
C157        C183   1.468       .  S
C158        C189   1.469       .  S
C159        C205   1.461       .  S
C160        C165   1.462       .  S
C161        N162   1.369   1_545  A
C161        N166   1.348       .  A
C161        C781   1.480   1_545  S
N162        C163   1.372   1_565  A
C163        N164   1.365       .  A
N164        C165   1.361       .  A
C165        N166   1.347       .  A
C167        N168   1.369   1_545  A
C167        N172   1.350       .  A
C167        C778   1.481   1_545  S
N168        C169   1.371   1_565  A
C169        N170   1.363       .  A
N170        C171   1.359       .  A
C171        N172   1.350       .  A
C173        N174   1.352       .  A
C173        N178   1.357       .  A
C173        C366   1.465       .  S
N174        C175   1.354       .  A
C175        N176   1.364       .  A
N176        C177   1.366       .  A
C177        N178   1.359       .  A
C179        N180   1.347       .  A
C179        N184   1.359       .  A
C179        C361   1.467       .  S
N180        C181   1.351       .  A
C181        N182   1.360       .  A
N182        C183   1.363       .  A
C183        N184   1.362       .  A
C185        N186   1.351       .  A
C185        N190   1.358   1_565  A
C185        C766   1.468       .  S
N186        C187   1.354   1_565  A
C187        N188   1.362       .  A
N188        C189   1.363       .  A
C189        N190   1.358       .  A
C191        N192   1.349       .  A
C191        N196   1.359   1_565  A
C191        C762   1.464       .  S
N192        C193   1.351   1_565  A
C193        N194   1.361       .  A
N194        C195   1.362       .  A
C195        N196   1.360       .  A
C197        N198   1.370       .  A
C197        N202   1.349       .  A
C197        C350   1.489       .  S
N198        C199   1.375       .  A
C199        N200   1.367       .  A
N200        C201   1.363       .  A
C201        N202   1.350       .  A
C203        N204   1.349       .  A
C203        N208   1.371       .  A
C203        C345   1.486       .  S
N204        C205   1.349       .  A
C205        N206   1.357       .  A
N206        C207   1.363       .  A
C207        N208   1.374       .  A
N209        C213   1.355       .  A
N209       C1030   1.355       .  A
N209        H241   1.035       .  S
N210        C217   1.351       .  A
N210        C218   1.352       .  A
N211        C215   1.352       .  A
N211       C1032   1.353       .  A
N211        H242   1.041       .  S
N212        C219   1.351       .  A
N212        C220   1.352       .  A
C213        C221   1.389       .  A
C213        C229   1.422       .  A
C214       N1025   1.357   1_455  A
C214        C230   1.424       .  A
C214        C222   1.387       .  A
C215        C223   1.387       .  A
C215        C232   1.411       .  A
C216       N1027   1.349   1_455  A
C216        C231   1.405       .  A
C216        C224   1.387       .  A
C217        C229   1.413       .  A
C217        C225   1.386       .  A
C218        C232   1.417       .  A
C218        C226   1.389       .  A
C219        C227   1.387       .  A
C219        C230   1.412       .  A
C220        C228   1.386       .  A
C220        C231   1.414       .  A
C221       C1038   1.374       .  A
C221        H233   1.081       .  S
C222       C1037   1.382   1_455  A
C222        H234   1.082       .  S
C223       C1040   1.374       .  A
C223        H235   1.082       .  S
C224       C1039   1.372   1_455  A
C224        H236   1.082       .  S
C225        C226   1.369       .  A
C225        H237   1.082       .  S
C226        H238   1.080       .  S
C227        C228   1.372       .  A
C227        H239   1.082       .  S
C228        H240   1.082       .  S
C229        C369   1.487       .  S
C230        C374   1.499       .  S
C231        C362   1.484       .  S
C232        C365   1.486       .  S
N243        C248   1.349       .  A
N243        C247   1.350       .  A
N243        H275   1.039       .  S
N244        C251   1.353       .  A
N244        C252   1.350       .  A
N245        C250   1.360       .  A
N245        C249   1.360       .  A
N245        H276   1.037       .  S
N246        C253   1.354       .  A
N246        C254   1.352       .  A
C247        C255   1.388       .  A
C247        C263   1.406       .  A
C248        C264   1.405       .  A
C248        C256   1.388       .  A
C249        C257   1.387       .  A
C249        C266   1.430       .  A
C250        C265   1.430       .  A
C250        C258   1.388       .  A
C251        C263   1.410       .  A
C251        C259   1.384       .  A
C252        C266   1.413       .  A
C252        C260   1.389       .  A
C253        C261   1.384       .  A
C253        C264   1.414       .  A
C254        C262   1.388       .  A
C254        C265   1.416       .  A
C255        C256   1.369       .  A
C255        H267   1.082       .  S
C256        H268   1.082       .  S
C257        C258   1.385       .  A
C257        H269   1.082       .  S
C258        H270   1.082       .  S
C259        C260   1.370       .  A
C259        H271   1.082       .  S
C260        H272   1.082       .  S
C261        C262   1.371       .  A
C261        H273   1.082       .  S
C262        H274   1.082       .  S
C263        C357   1.483       .  S
C264        C353   1.483       .  S
C265        C349   1.503       .  S
C266        C346   1.500       .  S
N277        C282   1.351       .  A
N277        C281   1.351       .  A
N277        H309   1.040       .  S
N278        C285   1.355       .  A
N278        C286   1.353       .  A
N279        C284   1.356       .  A
N279        C283   1.357       .  A
N279        H310   1.038       .  S
N280        C287   1.351       .  A
N280        C288   1.350       .  A
C281        C289   1.387       .  A
C281        C297   1.409       .  A
C282        C298   1.411       .  A
C282        C290   1.387       .  A
C283        C291   1.389       .  A
C283        C300   1.427       .  A
C284        C299   1.420       .  A
C284        C292   1.385       .  A
C285        C297   1.420       .  A
C285        C293   1.386       .  A
C286        C300   1.418       .  A
C286        C294   1.387       .  A
C287        C295   1.386       .  A
C287        C298   1.407       .  A
C288        C296   1.388       .  A
C288        C299   1.408       .  A
C289        C290   1.373       .  A
C289        H301   1.082       .  S
C290        H302   1.082       .  S
C291        C292   1.381       .  A
C291        H303   1.082       .  S
C292        H304   1.083       .  S
C293        C294   1.374       .  A
C293        H305   1.082       .  S
C294        H306   1.082       .  S
C295        C296   1.368       .  A
C295        H307   1.082       .  S
C296        H308   1.083       .  S
C297        C402   1.495       .  S
C298        C397   1.483       .  S
C299        C394   1.488       .  S
C300        C406   1.500       .  S
N311        C315   1.353       .  A
N311       C1132   1.352       .  A
N311        H343   1.041       .  S
N312        C319   1.350       .  A
N312        C320   1.350       .  A
N313        C317   1.352       .  A
N313       C1134   1.351       .  A
N313        H344   1.039       .  S
N314        C321   1.350       .  A
N314        C322   1.351       .  A
C315        C323   1.385       .  A
C315        C331   1.409       .  A
C316       N1127   1.354       .  A
C316        C332   1.420       .  A
C316        C324   1.389       .  A
C317        C325   1.389       .  A
C317        C334   1.418       .  A
C318       N1129   1.352   1_455  A
C318        C333   1.409       .  A
C318        C326   1.385   1_455  A
C319        C331   1.414       .  A
C319        C327   1.388       .  A
C320        C334   1.406       .  A
C320        C328   1.385       .  A
C321        C329   1.384       .  A
C321        C332   1.406       .  A
C322        C330   1.388       .  A
C322        C333   1.414       .  A
C323       C1140   1.376       .  A
C323        H335   1.082       .  S
C324       C1139   1.377   1_455  A
C324        H336   1.082       .  S
C325       C1142   1.377       .  A
C325        H337   1.082       .  S
C326       C1141   1.377       .  A
C326        H338   1.083   1_655  S
C327        C328   1.373       .  A
C327        H339   1.082       .  S
C328        H340   1.083       .  S
C329        C330   1.372       .  A
C329        H341   1.082       .  S
C330        H342   1.082       .  S
C331        C390   1.491       .  S
C332        C385   1.493       .  S
C333        C381   1.489       .  S
C334        C378   1.486       .  S
C345        C346   1.337       .  D
C345        H347   1.088       .  S
C346        H348   1.087       .  S
C349        C350   1.339       .  D
C349        H351   1.086       .  S
C350        H352   1.088       .  S
C353        C354   1.335       .  D
C353        H355   1.087       .  S
C354        C599   1.464       .  S
C354        H764   1.088       .  S
H356        C762   1.087       .  S
C357        C358   1.338       .  D
C357        H359   1.087       .  S
C358        C593   1.467       .  S
C358        H360   1.087       .  S
C361        C362   1.336       .  D
C361        H363   1.087       .  S
C362        H364   1.087       .  S
C365        C366   1.340       .  D
C365        H367   1.086       .  S
C366        H368   1.087       .  S
C369        C370   1.340       .  D
C369        H371   1.087       .  S
C370        C575   1.468       .  S
C370        H372   1.087       .  S
C373        C569   1.486       .  S
C373        C374   1.340       .  D
C373        H375   1.087       .  S
C374        H376   1.087       .  S
C377        C549   1.469   1_545  S
C377        C378   1.337       .  D
C377        H787   1.088       .  S
C378        H380   1.086       .  S
H379        C785   1.088       .  S
C381        C382   1.343       .  D
C381        H383   1.086       .  S
C382        C543   1.473   1_545  S
C382        H384   1.087       .  S
C385        C386   1.339       .  D
C385        H387   1.087       .  S
C386        H388   1.087       .  S
C389        C390   1.340       .  D
C389        H391   1.087       .  S
C390        H392   1.086       .  S
C393        C483   1.476       .  S
C393        C394   1.337       .  D
C393        H395   1.088       .  S
C394        H396   1.087       .  S
C397        C398   1.342       .  D
C397        H399   1.087       .  S
C398        C477   1.465       .  S
C398        H400   1.087       .  S
C401        C402   1.337       .  D
C401        H403   1.087       .  S
C402        H404   1.087       .  S
C405        C406   1.345       .  D
C405        H407   1.087       .  S
C406        H408   1.087       .  S
O409       Ni417   1.944       .  S
O409        C419   1.287       .  A
O410       Ni417   1.921       .  S
O410        C420   1.281       .  A
O411       Ni417   1.917       .  S
O411        C421   1.278       .  A
O412       Ni417   1.934       .  S
O412        C422   1.285       .  A
O413       Ni418   1.909       .  S
O413        C422   1.278       .  A
O414       Ni418   1.911       .  S
O414        C421   1.282       .  A
O415       Ni418   1.922       .  S
O415        C420   1.281       .  A
O416       Ni418   1.922       .  S
O416        C419   1.280       .  A
Ni417      Ni418   2.390       .  S
C419        C485   1.484       .  S
C420        C507   1.470       .  S
C421        C553   1.459       .  S
C422        C455   1.472       .  S
O423       Ni431   1.905       .  S
O423        C433   1.277       .  A
O424       Ni431   1.910       .  S
O424        C434   1.280       .  A
O425       Ni431   1.921       .  S
O425        C435   1.283       .  A
O426       Ni431   1.916       .  S
O426        C436   1.279       .  A
O427       Ni432   1.914       .  S
O427        C436   1.282       .  A
O428       Ni432   1.911       .  S
O428        C435   1.277       .  A
O429       Ni432   1.918       .  S
O429        C434   1.280       .  A
O430       Ni432   1.929       .  S
O430        C433   1.284       .  A
Ni431      Ni432   2.393       .  S
C433        C547   1.465       .  S
C434        C461   1.460       .  S
C435        C481   1.462       .  S
C436        C513   1.461       .  S
O437       Ni445   1.933       .  S
O437        C447   1.284       .  A
O438      Ni1261   1.935       .  S
O438        C448   1.284       .  A
O439       Ni445   1.915       .  S
O439        C449   1.281       .  A
O440      Ni1261   1.914       .  S
O440        C450   1.279       .  A
O441      Ni1262   1.938       .  S
O441        C450   1.285       .  A
O442       Ni446   1.924       .  S
O442        C449   1.281       .  A
O443      Ni1262   1.912       .  S
O443        C448   1.279       .  A
O444       Ni446   1.936       .  S
O444        C447   1.284       .  A
Ni445      O1254   1.944       .  S
Ni445      O1256   1.912       .  S
Ni445      Ni446   2.387       .  S
Ni446      O1257   1.936       .  S
Ni446      O1259   1.927       .  S
C447        C607   1.487       .  S
C448        C459   1.473       .  S
C449        C453   1.469       .  S
C450        C615   1.476       .  S
C451        N452   1.353       .  A
C451        N456   1.363       .  A
C451        C813   1.484       .  S
N452        C453   1.356       .  A
C453        N454   1.360       .  A
N454        C455   1.363       .  A
C455        N456   1.365       .  A
C457        N458   1.364       .  A
C457        N462   1.350       .  A
C457        C809   1.475       .  S
N458        C459   1.366       .  A
C459        N460   1.363       .  A
N460        C461   1.358       .  A
C461        N462   1.351       .  A
O463       Ni471   1.925       .  S
O464      Ni1287   1.922       .  S
O464        C474   1.280       .  A
O465       Ni471   1.905       .  S
O465        C475   1.276       .  A
O466      Ni1287   1.911       .  S
O467      Ni1288   1.920   1_455  S
O467        C476   1.280       .  A
O468       Ni472   1.918       .  S
O469      Ni1288   1.918   1_455  S
O470       Ni472   1.919       .  S
O470        C473   1.279       .  A
Ni471      O1280   1.918       .  S
Ni471      O1282   1.910       .  S
Ni472      O1283   1.909       .  S
Ni472      O1285   1.923       .  S
C473        C487   1.470       .  S
C474        C595   1.465       .  S
C475        C601   1.455       .  S
C476        C479   1.465       .  S
C477        N482   1.353   1_545  A
C479        N480   1.363       .  A
N480        C481   1.363       .  A
C481        N482   1.353       .  A
C483        N484   1.366   1_545  A
C483        N488   1.350       .  A
N484        C485   1.367       .  A
C485        N486   1.366       .  A
N486        C487   1.364       .  A
C487        N488   1.351   1_565  A
O489       Ni497   1.921   1_554  S
O489        C499   1.280       .  A
O490       Ni497   1.929       .  S
O490        C500   1.284       .  A
O491       Ni497   1.922       .  S
O491        C501   1.283       .  A
O492       Ni497   1.913   1_554  S
O492        C502   1.279       .  A
O493       Ni498   1.909       .  S
O493        C502   1.281       .  A
O494       Ni498   1.907   1_556  S
O494        C501   1.277       .  A
O495       Ni498   1.908   1_556  S
O495        C500   1.278       .  A
O496       Ni498   1.914       .  S
O496        C499   1.282       .  A
Ni497      Ni498   2.393   1_556  S
C499        C583   1.466       .  S
C500        C511   1.467       .  S
C501        C505   1.460       .  S
C502        C589   1.458       .  S
C503        N504   1.351       .  A
C503        N508   1.360       .  A
C503        C797   1.468       .  S
N504        C505   1.350       .  A
C505        N506   1.360       .  A
N506        C507   1.362       .  A
C507        N508   1.363       .  A
C509        N510   1.359       .  A
C509        N514   1.351       .  A
C509        C794   1.468       .  S
N510        C511   1.361       .  A
C511        N512   1.363       .  A
N512        C513   1.359       .  A
C513        N514   1.352       .  A
O515       Ni523   1.923       .  S
O515        C525   1.279       .  A
O516       Ni523   1.924       .  S
O516        C526   1.284       .  A
O517       Ni523   1.928       .  S
O517        C527   1.284       .  A
O518       Ni523   1.917       .  S
O518        C528   1.280       .  A
O519       Ni524   1.923       .  S
O519        C528   1.282       .  A
O520       Ni524   1.919       .  S
O520        C527   1.279       .  A
O521       Ni524   1.911       .  S
O521        C526   1.277       .  A
O522       Ni524   1.921       .  S
O522        C525   1.284       .  A
Ni523      Ni524   2.391       .  S
C525        C609   1.471       .  S
C526        C579   1.465       .  S
C527        C585   1.470       .  S
C528        C603   1.467       .  S
O529       Ni537   1.923   1_556  S
O529        C539   1.281       .  A
O530       Ni537   1.944       .  S
O531       Ni537   1.945       .  S
O532       Ni537   1.925   1_556  S
O532        C542   1.282       .  A
O533       Ni538   1.929       .  S
O534       Ni538   1.921   1_554  S
O534        C541   1.281       .  A
O535       Ni538   1.912   1_554  S
O535        C540   1.278       .  A
O536       Ni538   1.912       .  S
C539        C545   1.467       .  S
C540        C577   1.469       .  S
C541        C571   1.484       .  S
C542        C551   1.473       .  S
C543        N544   1.355   1_565  A
C543        N548   1.358       .  A
N544        C545   1.356   1_545  A
C545        N546   1.359       .  A
N546        C547   1.363       .  A
C547        N548   1.359       .  A
C549        N554   1.346       .  A
C551        N552   1.366       .  A
N552        C553   1.362       .  A
C553        N554   1.349       .  A
O555       Ni563   1.919       .  S
O555        C565   1.281       .  A
O556       Ni563   1.912       .  S
O556        C566   1.278       .  A
O557       Ni563   1.915       .  S
O557        C567   1.279       .  A
O558       Ni563   1.926       .  S
O558        C568   1.284       .  A
O559       Ni564   1.915       .  S
O559        C568   1.278       .  A
O560       Ni564   1.919       .  S
O560        C567   1.282       .  A
O561       Ni564   1.929       .  S
O561        C566   1.284       .  A
O562       Ni564   1.922       .  S
O562        C565   1.281       .  A
Ni563      Ni564   2.391       .  S
C565        C591   1.467       .  S
C566        C597   1.467       .  S
C567        C613   1.466       .  S
C568        C573   1.469       .  S
C569        N570   1.369       .  A
C569        N574   1.353       .  A
N570        C571   1.370       .  A
C571        N572   1.364       .  A
N572        C573   1.361       .  A
C573        N574   1.352       .  A
C575        N576   1.358       .  A
C575        N580   1.352       .  A
N576        C577   1.360       .  A
C577        N578   1.364       .  A
N578        C579   1.361       .  A
C579        N580   1.355       .  A
C581        N582   1.349       .  A
C581        N586   1.357       .  A
C581        C774   1.467       .  S
N582        C583   1.353       .  A
C583        N584   1.365       .  A
N584        C585   1.366       .  A
C585        N586   1.358       .  A
C587        N588   1.349       .  A
C587        N592   1.360       .  A
C587        C769   1.470       .  S
N588        C589   1.352       .  A
C589        N590   1.360       .  A
N590        C591   1.361       .  A
C591        N592   1.362       .  A
C593        N594   1.350       .  A
C593        N598   1.358       .  A
N594        C595   1.354       .  A
C595        N596   1.362       .  A
N596        C597   1.364       .  A
C597        N598   1.358       .  A
C599        N600   1.346       .  A
C599        N604   1.360       .  A
N600        C601   1.349       .  A
C601        N602   1.361       .  A
N602        C603   1.361       .  A
C603        N604   1.363       .  A
C605        N606   1.366       .  A
C605        N610   1.349       .  A
C605        C758   1.482       .  S
N606        C607   1.370       .  A
C607        N608   1.368       .  A
N608        C609   1.364       .  A
C609        N610   1.350       .  A
C611        N612   1.353       .  A
C611        N616   1.365       .  A
C611        C753   1.480       .  S
N612        C613   1.354       .  A
C613        N614   1.360       .  A
N614        C615   1.362       .  A
C615        N616   1.365       .  A
N617       C1438   1.360       .  A
N617        C621   1.358       .  A
N617        H649   1.033       .  S
N618        C625   1.350       .  A
N618        C626   1.353       .  A
N619       C1440   1.351       .  A
N619        C623   1.352       .  A
N619        H650   1.037       .  S
N620        C627   1.350       .  A
N620        C628   1.353       .  A
C621        C629   1.387       .  A
C621        C637   1.428       .  A
C622       N1433   1.358       .  A
C622        C638   1.428       .  A
C622        C630   1.389       .  A
C623        C631   1.387       .  A
C623        C640   1.408       .  A
C624       N1435   1.352       .  A
C624        C639   1.408       .  A
C624        C632   1.387       .  A
C625        C637   1.413       .  A
C625        C633   1.389       .  A
C626        C640   1.411       .  A
C626        C634   1.385       .  A
C627        C635   1.389       .  A
C627        C638   1.413       .  A
C628        C636   1.385       .  A
C628        C639   1.412       .  A
C629       C1446   1.384       .  A
C629        H641   1.082       .  S
C630       C1445   1.383   1_455  A
C630        H642   1.082       .  S
C631       C1448   1.370       .  A
C631        H643   1.082       .  S
C632       C1447   1.371   1_455  A
C632        H644   1.082       .  S
C633        C634   1.370       .  A
C633        H645   1.082       .  S
C634        H646   1.082       .  S
C635        C636   1.372       .  A
C635        H647   1.083       .  S
C636        H648   1.083       .  S
C637        C777   1.495       .  S
C638        C782   1.496       .  S
C639        C770   1.488       .  S
C640        C773   1.484       .  S
N651        C656   1.351       .  A
N651        C655   1.351       .  A
N651        H683   1.040       .  S
N652        C659   1.353       .  A
N652        C660   1.351       .  A
N653        C658   1.357       .  A
N653        C657   1.356       .  A
N653        H684   1.039       .  S
N654        C661   1.352       .  A
N654        C662   1.352       .  A
C655        C663   1.388       .  A
C655        C671   1.408       .  A
C656        C672   1.407       .  A
C656        C664   1.387       .  A
C657        C665   1.387       .  A
C657        C674   1.424       .  A
C658        C673   1.424       .  A
C658        C666   1.387       .  A
C659        C671   1.412       .  A
C659        C667   1.385       .  A
C660        C674   1.414       .  A
C660        C668   1.389       .  A
C661        C669   1.385       .  A
C661        C672   1.413       .  A
C662        C670   1.387       .  A
C662        C673   1.412       .  A
C663        C664   1.370       .  A
C663        H675   1.082   1_565  S
C664        H676   1.082   1_565  S
C665        C666   1.381       .  A
C665        H677   1.082       .  S
C666        H678   1.082       .  S
C667        C668   1.371       .  A
C667        H679   1.082       .  S
C668        H680   1.082       .  S
C669        C670   1.371       .  A
C669        H681   1.082       .  S
C670        H682   1.082       .  S
C671        C765   1.485       .  S
C672        C761   1.484       .  S
C673        C757   1.498       .  S
C674        C754   1.493       .  S
N685        C690   1.351       .  A
N685        C689   1.351       .  A
N685        H717   1.040       .  S
N686        C693   1.354       .  A
N686        C694   1.351       .  A
N687        C692   1.355       .  A
N687        C691   1.357       .  A
N687        H718   1.038       .  S
N688        C695   1.352       .  A
N688        C696   1.351       .  A
C689        C697   1.387       .  A
C689        C705   1.408       .  A
C690        C706   1.410       .  A
C690        C698   1.387       .  A
C691        C699   1.389       .  A
C691        C708   1.425       .  A
C692        C707   1.421       .  A
C692        C700   1.386       .  A
C693        C705   1.417       .  A
C693        C701   1.386       .  A
C694        C708   1.414       .  A
C694        C702   1.387       .  A
C695        C703   1.385       .  A
C695        C706   1.409       .  A
C696        C704   1.388       .  A
C696        C707   1.411       .  A
C697        C698   1.375       .  A
C697        H709   1.082       .  S
C698        H710   1.083       .  S
C699        C700   1.381       .  A
C699        H711   1.082       .  S
C700        H712   1.082       .  S
C701        C702   1.373       .  A
C701        H713   1.082       .  S
C702        H714   1.083       .  S
C703        C704   1.368       .  A
C703        H715   1.082       .  S
C704        H716   1.082       .  S
C705        C810   1.492       .  S
C706        C805   1.487       .  S
C707        C802   1.491       .  S
C708        C814   1.496       .  S
N719       C1540   1.353       .  A
N719        C723   1.352       .  A
N719        H751   1.040       .  S
N720        C727   1.350       .  A
N720        C728   1.350       .  A
N721       C1542   1.352       .  A
N721        C725   1.352       .  A
N721        H752   1.040       .  S
N722        C729   1.350       .  A
N722        C730   1.350       .  A
C723        C731   1.385       .  A
C723        C739   1.411       .  A
C724       N1535   1.352       .  A
C724        C740   1.416       .  A
C724        C732   1.389       .  A
C725        C733   1.389       .  A
C725        C742   1.417       .  A
C726       N1537   1.351   1_455  A
C726        C741   1.409       .  A
C726        C734   1.386       .  A
C727        C739   1.415       .  A
C727        C735   1.389       .  A
C728        C742   1.407       .  A
C728        C736   1.385       .  A
C729        C737   1.384       .  A
C729        C740   1.406       .  A
C730        C738   1.389       .  A
C730        C741   1.415       .  A
C731       C1548   1.377       .  A
C731        H743   1.082       .  S
C732       C1547   1.376   1_455  A
C732        H744   1.082       .  S
C733       C1550   1.377       .  A
C733        H745   1.082       .  S
C734       C1549   1.377   1_455  A
C734        H746   1.083       .  S
C735        C736   1.373       .  A
C735        H747   1.082       .  S
C736        H748   1.083       .  S
C737        C738   1.373       .  A
C737        H749   1.083       .  S
C738        H750   1.082       .  S
C739        C798   1.489       .  S
C740        C793   1.488       .  S
C741        C789   1.485       .  S
C742        C786   1.488       .  S
C753        C754   1.340       .  D
C753        H755   1.087       .  S
C754        H756   1.087       .  S
C757        C758   1.339       .  D
C757        H759   1.087       .  S
C758        H760   1.088       .  S
C761        C762   1.338       .  D
C761        H763   1.087       .  S
C765        C766   1.339       .  D
C765        H767   1.087       .  S
C766        H768   1.087       .  S
C769        C770   1.339       .  D
C769        H771   1.087       .  S
C770        H772   1.087       .  S
C773        C774   1.339       .  D
C773        H775   1.087       .  S
C774        H776   1.087       .  S
C777        C778   1.337       .  D
C777        H779   1.087       .  S
C778        H780   1.088       .  S
C781        C782   1.336       .  D
C781        H783   1.088       .  S
C782        H784   1.087       .  S
C785        C786   1.339       .  D
C786        H788   1.086       .  S
C789        C790   1.339       .  D
C789        H791   1.086       .  S
C790        H792   1.087       .  S
C793        C794   1.340       .  D
C793        H795   1.087       .  S
C794        H796   1.087       .  S
C797        C798   1.340       .  D
C797        H799   1.088       .  S
C798        H800   1.086       .  S
C801        C802   1.338       .  D
C801        H803   1.087       .  S
C802        H804   1.087       .  S
C805        C806   1.342       .  D
C805        H807   1.086       .  S
C806        H808   1.087       .  S
C809        C810   1.338       .  D
C809        H811   1.087       .  S
C810        H812   1.086       .  S
C813        C814   1.342       .  D
C813        H815   1.087       .  S
C814        H816   1.087       .  S
O817       Ni825   1.947       .  S
O817        C827   1.287       .  A
O818       Ni825   1.930       .  S
O818        C828   1.282       .  A
O819       Ni825   1.916       .  S
O819        C829   1.278       .  A
O820       Ni825   1.938       .  S
O820        C830   1.285       .  A
O821       Ni826   1.918       .  S
O821        C830   1.280       .  A
O822       Ni826   1.916       .  S
O822        C829   1.282       .  A
O823       Ni826   1.928       .  S
O823        C828   1.283       .  A
O824       Ni826   1.927       .  S
O824        C827   1.282       .  A
Ni825      Ni826   2.388       .  S
C827        C893   1.490       .  S
C828        C915   1.479       .  S
C829        C961   1.461       .  S
C830        C863   1.479       .  S
O831       Ni839   1.915       .  S
O831        C841   1.279       .  A
O832       Ni839   1.917       .  S
O832        C842   1.283       .  A
O833       Ni839   1.919       .  S
O833        C843   1.282       .  A
O834       Ni839   1.914       .  S
O834        C844   1.279       .  A
O835       Ni840   1.920       .  S
O835        C844   1.282       .  A
O836       Ni840   1.913       .  S
O836        C843   1.279       .  A
O837       Ni840   1.929       .  S
O837        C842   1.281       .  A
O838       Ni840   1.941       .  S
O838        C841   1.287       .  A
Ni839      Ni840   2.391       .  S
C841        C955   1.479       .  S
C842        C869   1.471       .  S
C843        C889   1.462       .  S
C844        C921   1.463       .  S
O845       Ni853   1.933   1_655  S
O845        C855   1.283       .  A
O846        C856   1.286       .  A
O847       Ni853   1.918   1_655  S
O847        C857   1.282       .  A
O848        C858   1.280       .  A
O849        C858   1.288       .  A
O850       Ni854   1.927   1_655  S
O850        C857   1.281       .  A
O851        C856   1.281       .  A
O852       Ni854   1.950   1_655  S
O852        C855   1.288       .  A
Ni853      Ni854   2.386       .  S
C855       C1015   1.498       .  S
C856        C867   1.483       .  S
C857        C861   1.472       .  S
C858       C1023   1.488       .  S
C859        N860   1.354       .  A
C859        N864   1.364       .  A
C859       C1221   1.486       .  S
N860        C861   1.356       .  A
C861        N862   1.362       .  A
N862        C863   1.365       .  A
C863        N864   1.366       .  A
C865        N866   1.364       .  A
C865        N870   1.348       .  A
C865       C1217   1.477       .  S
N866        C867   1.367       .  A
C867        N868   1.370       .  A
N868        C869   1.364       .  A
C869        N870   1.350       .  A
O871       Ni879   1.920       .  S
O871       C1289   1.283   1_545  A
O872        C882   1.280       .  A
O873       Ni879   1.907       .  S
O873        C883   1.278       .  A
O874       C1292   1.279   1_545  A
O875        C884   1.279       .  A
O876       Ni880   1.918   1_655  S
O876       C1291   1.283       .  A
O877       C1290   1.281       .  A
O878       Ni880   1.915   1_655  S
O878        C881   1.278       .  A
Ni879     Ni1288   2.392   1_545  S
Ni880     Ni1287   2.392       .  S
C881       O1279   1.286       .  A
C881        C895   1.473       .  S
C882       O1285   1.283   1_545  A
C882       C1003   1.469       .  S
C883       O1284   1.283   1_545  A
C883       C1009   1.463       .  S
C884       O1282   1.281       .  A
C884        C887   1.460       .  S
C885       N1294   1.351       .  A
C885        N890   1.357       .  A
C885       C1622   1.467       .  S
N886       C1293   1.350       .  A
N886       C1295   1.353   1_545  A
C887       N1294   1.354       .  A
C887        N888   1.360       .  A
N888        C889   1.362       .  A
C889        N890   1.357       .  A
C891        N892   1.368       .  A
C891        N896   1.352       .  A
C891       C1617   1.484       .  S
N892        C893   1.369       .  A
C893        N894   1.366       .  A
N894        C895   1.365       .  A
C895        N896   1.353       .  A
O897       Ni905   1.922   1_554  S
O897        C907   1.280       .  A
O898       Ni905   1.927       .  S
O898        C908   1.283       .  A
O899       Ni905   1.922       .  S
O899        C909   1.284       .  A
O900       Ni905   1.912   1_554  S
O900        C910   1.279       .  A
O901       Ni906   1.923       .  S
O901        C910   1.283       .  A
O902       Ni906   1.923   1_556  S
O902        C909   1.279       .  A
O903       Ni906   1.908   1_556  S
O903        C908   1.279       .  A
O904       Ni906   1.917       .  S
O904        C907   1.283       .  A
Ni905      Ni906   2.391   1_556  S
C907        C991   1.468       .  S
C908        C919   1.466       .  S
C909        C913   1.471       .  S
C910        C997   1.464       .  S
C911        N912   1.349       .  A
C911        N916   1.360       .  A
C911       C1205   1.473       .  S
N912        C913   1.351       .  A
C913        N914   1.366       .  A
N914        C915   1.369       .  A
C915        N916   1.364       .  A
C917        N918   1.360       .  A
C917        N922   1.355       .  A
C917       C1202   1.473       .  S
N918        C919   1.361       .  A
C919        N920   1.360       .  A
N920        C921   1.357       .  A
C921        N922   1.355       .  A
O923       Ni931   1.912       .  S
O923        C933   1.276       .  A
O924       Ni931   1.912       .  S
O924        C934   1.281       .  A
O925       Ni931   1.939       .  S
O925        C935   1.287       .  A
O926       Ni931   1.929       .  S
O926        C936   1.283       .  A
O927       Ni932   1.907       .  S
O927        C936   1.279       .  A
O928       Ni932   1.910       .  S
O928        C935   1.277       .  A
O929       Ni932   1.927       .  S
O929        C934   1.282       .  A
O930       Ni932   1.934       .  S
O930        C933   1.288       .  A
Ni931      Ni932   2.390       .  S
C933       C1017   1.473       .  S
C934        C987   1.469       .  S
C935        C993   1.473       .  S
C936       C1011   1.467       .  S
O937       Ni945   1.929   1_556  S
O937        C947   1.281       .  A
O938       Ni945   1.935       .  S
O938       C1356   1.285       .  A
O939       Ni945   1.928       .  S
O939       C1357   1.284       .  A
O940       Ni945   1.919   1_556  S
O940        C950   1.281       .  A
O941       Ni946   1.925       .  S
O941       C1358   1.282   1_545  A
O942       Ni946   1.921   1_554  S
O942        C949   1.281       .  A
O943       Ni946   1.914   1_554  S
O943        C948   1.279       .  A
O944       Ni946   1.911       .  S
O944       C1355   1.280   1_545  A
Ni945     Ni1354   2.389   1_554  S
Ni946     Ni1353   2.388   1_546  S
C947       O1352   1.284       .  A
C947        C953   1.477       .  S
C948       O1346   1.286   1_545  A
C948        C985   1.481       .  S
C949       O1347   1.287   1_545  A
C949        C979   1.488       .  S
C950       O1349   1.282       .  A
C950        C959   1.471       .  S
C951        N952   1.353       .  A
C951        N956   1.360       .  A
C951       C1606   1.475       .  S
N952        C953   1.355       .  A
C953        N954   1.364       .  A
N954        C955   1.369       .  A
C955        N956   1.362       .  A
C957       N1366   1.361       .  A
C957        N962   1.349       .  A
C957       C1601   1.471       .  S
N958       C1365   1.359   1_545  A
N958       C1367   1.363   1_545  A
C959       N1366   1.365       .  A
C959        N960   1.364       .  A
N960        C961   1.360       .  A
C961        N962   1.351       .  A
O963       Ni971   1.915       .  S
O963        C973   1.281       .  A
O964       Ni971   1.913       .  S
O964        C974   1.279       .  A
O965       Ni971   1.924       .  S
O965        C975   1.280       .  A
O966       Ni971   1.923       .  S
O966        C976   1.285       .  A
O967       Ni972   1.915       .  S
O967        C976   1.278       .  A
O968       Ni972   1.922       .  S
O968        C975   1.284       .  A
O969       Ni972   1.934       .  S
O969        C974   1.285       .  A
O970       Ni972   1.925       .  S
O970        C973   1.282       .  A
Ni971      Ni972   2.390       .  S
C973        C999   1.469       .  S
C974       C1005   1.473       .  S
C975       C1021   1.474       .  S
C976        C981   1.468       .  S
C977        N978   1.370       .  A
C977        N982   1.349   1_565  A
C977       C1597   1.486       .  S
N978        C979   1.373   1_565  A
C979        N980   1.366       .  A
N980        C981   1.362       .  A
C981        N982   1.349       .  A
C983        N984   1.368   1_545  A
C983        N988   1.352       .  A
C983       C1594   1.487   1_545  S
N984        C985   1.370   1_565  A
C985        N986   1.365       .  A
N986        C987   1.359       .  A
C987        N988   1.354       .  A
C989        N990   1.350       .  A
C989        N994   1.359       .  A
C989       C1182   1.469       .  S
N990        C991   1.353       .  A
C991        N992   1.365       .  A
N992        C993   1.367       .  A
C993        N994   1.358       .  A
C995        N996   1.355       .  A
C995       N1000   1.354       .  A
C995       C1177   1.467       .  S
N996        C997   1.357       .  A
C997        N998   1.363       .  A
N998        C999   1.362       .  A
C999       N1000   1.358       .  A
C1001      N1002   1.355       .  A
C1001      N1006   1.360   1_565  A
C1001      C1582   1.473       .  S
N1002      C1003   1.355   1_565  A
C1003      N1004   1.360       .  A
N1004      C1005   1.364       .  A
C1005      N1006   1.362       .  A
C1007      N1008   1.357   1_545  A
C1007      N1012   1.354       .  A
C1007      C1578   1.469   1_545  S
N1008      C1009   1.359   1_565  A
C1009      N1010   1.362       .  A
N1010      C1011   1.359       .  A
C1011      N1012   1.357       .  A
C1013      N1014   1.370       .  A
C1013      N1018   1.349       .  A
C1013      C1166   1.485       .  S
N1014      C1015   1.373       .  A
C1015      N1016   1.369       .  A
N1016      C1017   1.367       .  A
C1017      N1018   1.348       .  A
C1019      N1020   1.352       .  A
C1019      N1024   1.369       .  A
C1019      C1161   1.489       .  S
N1020      C1021   1.353       .  A
C1021      N1022   1.363       .  A
N1022      C1023   1.367       .  A
C1023      N1024   1.371       .  A
N1025      C1029   1.355       .  A
N1025      H1057   1.040       .  S
N1026      C1033   1.349       .  A
N1026      C1034   1.353       .  A
N1027      C1031   1.350       .  A
N1027      H1058   1.041       .  S
N1028      C1035   1.351       .  A
N1028      C1036   1.352       .  A
C1029      C1037   1.388       .  A
C1029      C1045   1.422       .  A
C1030      C1046   1.419       .  A
C1030      C1038   1.387       .  A
C1031      C1039   1.387       .  A
C1031      C1048   1.406       .  A
C1032      C1047   1.415       .  A
C1032      C1040   1.387       .  A
C1033      C1045   1.412       .  A
C1033      C1041   1.389       .  A
C1034      C1048   1.411       .  A
C1034      C1042   1.385       .  A
C1035      C1043   1.387       .  A
C1035      C1046   1.416       .  A
C1036      C1044   1.386       .  A
C1036      C1047   1.411       .  A
C1037      H1049   1.082       .  S
C1038      H1050   1.082       .  S
C1039      H1051   1.082       .  S
C1040      H1052   1.082       .  S
C1041      C1042   1.372       .  A
C1041      H1053   1.082       .  S
C1042      H1054   1.082       .  S
C1043      C1044   1.372       .  A
C1043      H1055   1.082       .  S
C1044      H1056   1.082       .  S
C1045      C1185   1.489       .  S
C1046      C1190   1.495       .  S
C1047      C1178   1.495       .  S
C1048      C1181   1.484       .  S
N1059      C1064   1.352       .  A
N1059      C1063   1.352       .  A
N1059      H1091   1.038       .  S
N1060      C1067   1.353       .  A
N1060      C1068   1.352       .  A
N1061      C1066   1.358       .  A
N1061      C1065   1.360       .  A
N1061      H1092   1.037       .  S
N1062      C1069   1.355       .  A
N1062      C1070   1.353       .  A
C1063      C1071   1.388       .  A
C1063      C1079   1.410       .  A
C1064      C1080   1.409       .  A
C1064      C1072   1.387       .  A
C1065      C1073   1.387       .  A
C1065      C1082   1.428       .  A
C1066      C1081   1.429       .  A
C1066      C1074   1.388       .  A
C1067      C1079   1.414       .  A
C1067      C1075   1.385       .  A
C1068      C1082   1.415       .  A
C1068      C1076   1.388       .  A
C1069      C1077   1.385       .  A
C1069      C1080   1.417       .  A
C1070      C1078   1.388       .  A
C1070      C1081   1.416       .  A
C1071      C1072   1.370       .  A
C1071      H1083   1.082       .  S
C1072      H1084   1.082       .  S
C1073      C1074   1.384       .  A
C1073      H1085   1.082       .  S
C1074      H1086   1.082       .  S
C1075      C1076   1.371       .  A
C1075      H1087   1.082       .  S
C1076      H1088   1.082       .  S
C1077      C1078   1.371       .  A
C1077      H1089   1.082       .  S
C1078      H1090   1.082       .  S
C1079      C1173   1.488       .  S
C1080      C1169   1.492       .  S
C1081      C1165   1.501       .  S
C1082      C1162   1.501       .  S
N1093      C1098   1.352       .  A
N1093      C1097   1.351       .  A
N1093      H1125   1.040       .  S
N1094      C1101   1.355       .  A
N1094      C1102   1.352       .  A
N1095      C1100   1.357       .  A
N1095      C1099   1.357       .  A
N1095      H1126   1.037       .  S
N1096      C1103   1.352       .  A
N1096      C1104   1.351       .  A
C1097      C1105   1.387       .  A
C1097      C1113   1.409       .  A
C1098      C1114   1.412       .  A
C1098      C1106   1.387       .  A
C1099      C1107   1.390       .  A
C1099      C1116   1.427       .  A
C1100      C1115   1.423       .  A
C1100      C1108   1.385       .  A
C1101      C1113   1.418       .  A
C1101      C1109   1.386       .  A
C1102      C1116   1.416       .  A
C1102      C1110   1.387       .  A
C1103      C1111   1.386       .  A
C1103      C1114   1.408       .  A
C1104      C1112   1.388       .  A
C1104      C1115   1.411       .  A
C1105      C1106   1.374       .  A
C1105      H1117   1.083       .  S
C1106      H1118   1.082       .  S
C1107      C1108   1.382       .  A
C1107      H1119   1.082       .  S
C1108      H1120   1.082       .  S
C1109      C1110   1.374       .  A
C1109      H1121   1.082       .  S
C1110      H1122   1.083       .  S
C1111      C1112   1.367       .  A
C1111      H1123   1.082       .  S
C1112      H1124   1.082       .  S
C1113      C1218   1.493       .  S
C1114      C1213   1.485       .  S
C1115      C1210   1.494       .  S
C1116      C1222   1.498       .  S
N1127      C1131   1.353   1_455  A
N1127      H1159   1.040   1_455  S
N1128      C1135   1.351       .  A
N1128      C1136   1.352       .  A
N1129      C1133   1.352       .  A
N1129      H1160   1.041       .  S
N1130      C1137   1.352       .  A
N1130      C1138   1.353       .  A
C1131      C1139   1.385       .  A
C1131      C1147   1.412       .  A
C1132      C1148   1.417       .  A
C1132      C1140   1.389       .  A
C1133      C1141   1.389       .  A
C1133      C1150   1.418       .  A
C1134      C1149   1.410       .  A
C1134      C1142   1.386       .  A
C1135      C1147   1.417       .  A
C1135      C1143   1.389       .  A
C1136      C1150   1.410       .  A
C1136      C1144   1.385       .  A
C1137      C1145   1.384       .  A
C1137      C1148   1.410       .  A
C1138      C1146   1.389       .  A
C1138      C1149   1.418       .  A
C1139      H1151   1.082       .  S
C1140      H1152   1.082       .  S
C1141      H1153   1.082       .  S
C1142      H1154   1.083       .  S
C1143      C1144   1.374       .  A
C1143      H1155   1.082       .  S
C1144      H1156   1.083       .  S
C1145      C1146   1.373       .  A
C1145      H1157   1.082       .  S
C1146      H1158   1.082       .  S
C1147      C1206   1.492       .  S
C1148      C1201   1.492       .  S
C1149      C1197   1.489       .  S
C1150      C1194   1.492       .  S
C1161      C1162   1.341       .  D
C1161      H1163   1.087       .  S
C1162      H1164   1.087       .  S
C1165      C1166   1.339       .  D
C1165      H1167   1.086       .  S
C1166      H1168   1.088       .  S
C1169      C1170   1.338       .  D
C1169      H1171   1.087       .  S
C1170      C1415   1.471       .  S
C1170      H1580   1.087       .  S
H1172      C1578   1.085       .  S
C1173      C1174   1.340       .  D
C1173      H1175   1.087       .  S
C1174      C1409   1.471       .  S
C1174      H1176   1.087       .  S
C1177      C1178   1.344       .  D
C1177      H1179   1.085       .  S
C1178      H1180   1.087       .  S
C1181      C1182   1.338       .  D
C1181      H1183   1.087       .  S
C1182      H1184   1.087       .  S
C1185      C1186   1.338       .  D
C1185      H1187   1.087       .  S
C1186      C1391   1.477       .  S
C1186      H1188   1.087       .  S
C1189      C1385   1.466       .  S
C1189      C1190   1.344       .  D
C1189      H1191   1.086       .  S
C1190      H1192   1.087       .  S
C1193      C1365   1.473   1_545  S
C1193      C1194   1.341       .  D
C1193      H1603   1.087       .  S
C1194      H1196   1.086       .  S
H1195      C1601   1.088       .  S
C1197      C1198   1.340       .  D
C1197      H1199   1.086       .  S
C1198      C1359   1.473   1_545  S
C1198      H1200   1.087       .  S
C1201      C1202   1.343       .  D
C1201      H1203   1.087       .  S
C1202      H1204   1.087       .  S
C1205      C1206   1.341       .  D
C1205      H1207   1.087       .  S
C1206      H1208   1.086       .  S
C1209      C1299   1.480       .  S
C1209      C1210   1.338       .  D
C1209      H1211   1.087       .  S
C1210      H1212   1.087       .  S
C1213      C1214   1.339       .  D
C1213      H1215   1.087       .  S
C1214      C1293   1.467       .  S
C1214      H1216   1.087       .  S
C1217      C1218   1.338       .  D
C1217      H1219   1.087       .  S
C1218      H1220   1.087       .  S
C1221      C1222   1.343       .  D
C1221      H1223   1.087       .  S
C1222      H1224   1.087       .  S
O1225     Ni1233   1.940       .  S
O1225      C1235   1.285       .  A
O1226     Ni1233   1.922       .  S
O1226      C1236   1.281       .  A
O1227     Ni1233   1.925       .  S
O1227      C1237   1.280       .  A
O1228     Ni1233   1.943       .  S
O1228      C1238   1.287       .  A
O1229     Ni1234   1.915       .  S
O1229      C1238   1.279       .  A
O1230     Ni1234   1.915       .  S
O1230      C1237   1.282       .  A
O1231     Ni1234   1.925       .  S
O1231      C1236   1.283       .  A
O1232     Ni1234   1.920       .  S
O1232      C1235   1.281       .  A
Ni1233    Ni1234   2.389       .  S
C1235      C1301   1.481       .  S
C1236      C1323   1.473       .  S
C1237      C1369   1.468       .  S
C1238      C1271   1.480       .  S
O1239     Ni1247   1.911       .  S
O1239      C1249   1.279       .  A
O1240     Ni1247   1.923       .  S
O1240      C1250   1.284       .  A
O1241     Ni1247   1.921       .  S
O1241      C1251   1.282       .  A
O1242     Ni1247   1.917       .  S
O1242      C1252   1.279       .  A
O1243     Ni1248   1.914       .  S
O1243      C1252   1.282       .  A
O1244     Ni1248   1.906       .  S
O1244      C1251   1.278       .  A
O1245     Ni1248   1.924       .  S
O1245      C1250   1.280       .  A
O1246     Ni1248   1.928       .  S
O1246      C1249   1.283       .  A
Ni1247    Ni1248   2.392       .  S
C1249      C1363   1.468       .  S
C1250      C1277   1.473       .  S
C1251      C1297   1.458       .  S
C1252      C1329   1.463       .  S
O1253     Ni1261   1.929   1_655  S
O1253      C1263   1.282       .  A
O1254      C1264   1.286       .  A
O1255     Ni1261   1.924   1_655  S
O1255      C1265   1.283       .  A
O1256      C1266   1.277       .  A
O1257      C1266   1.286       .  A
O1258     Ni1262   1.929   1_655  S
O1258      C1265   1.282       .  A
O1259      C1264   1.282       .  A
O1260     Ni1262   1.925   1_655  S
O1260      C1263   1.283       .  A
Ni1261    Ni1262   2.388       .  S
C1263      C1423   1.477       .  S
C1264      C1275   1.487       .  S
C1265      C1269   1.478       .  S
C1266      C1431   1.473       .  S
C1267      N1268   1.356       .  A
C1267      N1272   1.363       .  A
C1267      C1629   1.484       .  S
N1268      C1269   1.358       .  A
C1269      N1270   1.364       .  A
N1270      C1271   1.367       .  A
C1271      N1272   1.364       .  A
C1273      N1274   1.366       .  A
C1273      N1278   1.352       .  A
C1273      C1625   1.481       .  S
N1274      C1275   1.368       .  A
C1275      N1276   1.368       .  A
N1276      C1277   1.364       .  A
C1277      N1278   1.352       .  A
O1279     Ni1287   1.929   1_655  S
O1280      C1290   1.280       .  A
O1281     Ni1287   1.908   1_655  S
O1281      C1291   1.276       .  A
O1283      C1292   1.279       .  A
O1284     Ni1288   1.925       .  S
O1286     Ni1288   1.910       .  S
O1286      C1289   1.278       .  A
C1289      C1303   1.464       .  S
C1290      C1411   1.461       .  S
C1291      C1417   1.460       .  S
C1292      C1295   1.454       .  S
C1293      N1298   1.358   1_545  A
C1295      N1296   1.357       .  A
N1296      C1297   1.358       .  A
C1297      N1298   1.358       .  A
C1299      N1300   1.368   1_545  A
C1299      N1304   1.352       .  A
N1300      C1301   1.369       .  A
C1301      N1302   1.361       .  A
N1302      C1303   1.360       .  A
C1303      N1304   1.352   1_565  A
O1305     Ni1313   1.928   1_554  S
O1305      C1315   1.281       .  A
O1306     Ni1313   1.934       .  S
O1306      C1316   1.284       .  A
O1307     Ni1313   1.924       .  S
O1307      C1317   1.284       .  A
O1308     Ni1313   1.915   1_554  S
O1308      C1318   1.279       .  A
O1309     Ni1314   1.912       .  S
O1309      C1318   1.281       .  A
O1310     Ni1314   1.910   1_556  S
O1310      C1317   1.276       .  A
O1311     Ni1314   1.913   1_556  S
O1311      C1316   1.279       .  A
O1312     Ni1314   1.920       .  S
O1312      C1315   1.283       .  A
Ni1313    Ni1314   2.391   1_556  S
C1315      C1399   1.474       .  S
C1316      C1327   1.473       .  S
C1317      C1321   1.462       .  S
C1318      C1405   1.461       .  S
C1319      N1320   1.349       .  A
C1319      N1324   1.359       .  A
C1319      C1613   1.466       .  S
N1320      C1321   1.350       .  A
C1321      N1322   1.362       .  A
N1322      C1323   1.365       .  A
C1323      N1324   1.362       .  A
C1325      N1326   1.362       .  A
C1325      N1330   1.350       .  A
C1325      C1610   1.471       .  S
N1326      C1327   1.364       .  A
C1327      N1328   1.364       .  A
N1328      C1329   1.360       .  A
C1329      N1330   1.351       .  A
O1331     Ni1339   1.911       .  S
O1331      C1341   1.277       .  A
O1332     Ni1339   1.910       .  S
O1332      C1342   1.280       .  A
O1333     Ni1339   1.932       .  S
O1333      C1343   1.285       .  A
O1334     Ni1339   1.924       .  S
O1334      C1344   1.282       .  A
O1335     Ni1340   1.925       .  S
O1335      C1344   1.282       .  A
O1336     Ni1340   1.918       .  S
O1336      C1343   1.278       .  A
O1337     Ni1340   1.925       .  S
O1337      C1342   1.281       .  A
O1338     Ni1340   1.941       .  S
O1338      C1341   1.287       .  A
Ni1339    Ni1340   2.390       .  S
C1341      C1425   1.476       .  S
C1342      C1395   1.466       .  S
C1343      C1401   1.473       .  S
C1344      C1419   1.474       .  S
O1345     Ni1353   1.919   1_556  S
O1345      C1355   1.280       .  A
O1346     Ni1353   1.945       .  S
O1347     Ni1353   1.947       .  S
O1348     Ni1353   1.928   1_556  S
O1348      C1358   1.282       .  A
O1349     Ni1354   1.926       .  S
O1350     Ni1354   1.913   1_554  S
O1350      C1357   1.279       .  A
O1351     Ni1354   1.917   1_554  S
O1351      C1356   1.280       .  A
O1352     Ni1354   1.926       .  S
C1355      C1361   1.461       .  S
C1356      C1393   1.475       .  S
C1357      C1387   1.469       .  S
C1358      C1367   1.475       .  S
C1359      N1360   1.352       .  A
C1359      N1364   1.361       .  A
N1360      C1361   1.354       .  A
C1361      N1362   1.357       .  A
N1362      C1363   1.362       .  A
C1363      N1364   1.362       .  A
C1365      N1370   1.350       .  A
C1367      N1368   1.368       .  A
N1368      C1369   1.364       .  A
C1369      N1370   1.352       .  A
O1371     Ni1379   1.924       .  S
O1371      C1381   1.283       .  A
O1372     Ni1379   1.916       .  S
O1372      C1382   1.280       .  A
O1373     Ni1379   1.927       .  S
O1373      C1383   1.281       .  A
O1374     Ni1379   1.932       .  S
O1374      C1384   1.285       .  A
O1375     Ni1380   1.909       .  S
O1375      C1384   1.278       .  A
O1376     Ni1380   1.919       .  S
O1376      C1383   1.283       .  A
O1377     Ni1380   1.922       .  S
O1377      C1382   1.282       .  A
O1378     Ni1380   1.914       .  S
O1378      C1381   1.279       .  A
Ni1379    Ni1380   2.391       .  S
C1381      C1407   1.465       .  S
C1382      C1413   1.466       .  S
C1383      C1429   1.472       .  S
C1384      C1389   1.469       .  S
C1385      N1386   1.355       .  A
C1385      N1390   1.357       .  A
N1386      C1387   1.357       .  A
C1387      N1388   1.362       .  A
N1388      C1389   1.362       .  A
C1389      N1390   1.359       .  A
C1391      N1392   1.362       .  A
C1391      N1396   1.350       .  A
N1392      C1393   1.363       .  A
C1393      N1394   1.365       .  A
N1394      C1395   1.362       .  A
C1395      N1396   1.354       .  A
C1397      N1398   1.352       .  A
C1397      N1402   1.356       .  A
C1397      C1590   1.469       .  S
N1398      C1399   1.356       .  A
C1399      N1400   1.367       .  A
N1400      C1401   1.368       .  A
C1401      N1402   1.356       .  A
C1403      N1404   1.349       .  A
C1403      N1408   1.357       .  A
C1403      C1585   1.465       .  S
N1404      C1405   1.352       .  A
C1405      N1406   1.362       .  A
N1406      C1407   1.363       .  A
C1407      N1408   1.359       .  A
C1409      N1410   1.351       .  A
C1409      N1414   1.359       .  A
N1410      C1411   1.354       .  A
C1411      N1412   1.361       .  A
N1412      C1413   1.361       .  A
C1413      N1414   1.361       .  A
C1415      N1416   1.349       .  A
C1415      N1420   1.362       .  A
N1416      C1417   1.350       .  A
C1417      N1418   1.362       .  A
N1418      C1419   1.363       .  A
C1419      N1420   1.364       .  A
C1421      N1422   1.355       .  A
C1421      N1426   1.356       .  A
C1421      C1574   1.466       .  S
N1422      C1423   1.357       .  A
C1423      N1424   1.365       .  A
N1424      C1425   1.368       .  A
C1425      N1426   1.359       .  A
C1427      N1428   1.351       .  A
C1427      N1432   1.358       .  A
C1427      C1569   1.471       .  S
N1428      C1429   1.355       .  A
C1429      N1430   1.365       .  A
N1430      C1431   1.368       .  A
C1431      N1432   1.360       .  A
N1433      C1437   1.358   1_455  A
N1433      H1465   1.038       .  S
N1434      C1441   1.351       .  A
N1434      C1442   1.352       .  A
N1435      C1439   1.351   1_455  A
N1435      H1466   1.040       .  S
N1436      C1443   1.352       .  A
N1436      C1444   1.352       .  A
C1437      C1445   1.386       .  A
C1437      C1453   1.426       .  A
C1438      C1454   1.429       .  A
C1438      C1446   1.387       .  A
C1439      C1447   1.388       .  A
C1439      C1456   1.408       .  A
C1440      C1455   1.408       .  A
C1440      C1448   1.387       .  A
C1441      C1453   1.413       .  A
C1441      C1449   1.388       .  A
C1442      C1456   1.411       .  A
C1442      C1450   1.384       .  A
C1443      C1451   1.388       .  A
C1443      C1454   1.414       .  A
C1444      C1452   1.385       .  A
C1444      C1455   1.412       .  A
C1445      H1457   1.082       .  S
C1446      H1458   1.082       .  S
C1447      H1459   1.082       .  S
C1448      H1460   1.082       .  S
C1449      C1450   1.370       .  A
C1449      H1461   1.082       .  S
C1450      H1462   1.082       .  S
C1451      C1452   1.370       .  A
C1451      H1463   1.082       .  S
C1452      H1464   1.082       .  S
C1453      C1593   1.498       .  S
C1454      C1598   1.501       .  S
C1455      C1586   1.484       .  S
C1456      C1589   1.483       .  S
N1467      C1472   1.354       .  A
N1467      C1471   1.353       .  A
N1467      H1499   1.041       .  S
N1468      C1475   1.354       .  A
N1468      C1476   1.352       .  A
N1469      C1474   1.356       .  A
N1469      C1473   1.354       .  A
N1469      H1500   1.035       .  S
N1470      C1477   1.351       .  A
N1470      C1478   1.351       .  A
C1471      C1479   1.387       .  A
C1471      C1487   1.413       .  A
C1472      C1488   1.418       .  A
C1472      C1480   1.387       .  A
C1473      C1481   1.389       .  A
C1473      C1490   1.423       .  A
C1474      C1489   1.419       .  A
C1474      C1482   1.387       .  A
C1475      C1487   1.419       .  A
C1475      C1483   1.388       .  A
C1476      C1490   1.416       .  A
C1476      C1484   1.386       .  A
C1477      C1485   1.386       .  A
C1477      C1488   1.410       .  A
C1478      C1486   1.386       .  A
C1478      C1489   1.415       .  A
C1479      C1480   1.375       .  A
C1479      H1491   1.081       .  S
C1480      H1492   1.082       .  S
C1481      C1482   1.375       .  A
C1481      H1493   1.081       .  S
C1482      H1494   1.082       .  S
C1483      C1484   1.370       .  A
C1483      H1495   1.081       .  S
C1484      H1496   1.082       .  S
C1485      C1486   1.372       .  A
C1485      H1497   1.082       .  S
C1486      H1498   1.082       .  S
C1487      C1581   1.494       .  S
C1488      C1577   1.495       .  S
C1489      C1573   1.496       .  S
C1490      C1570   1.488       .  S
N1501      C1506   1.352       .  A
N1501      C1505   1.353       .  A
N1501      H1533   1.040       .  S
N1502      C1509   1.356       .  A
N1502      C1510   1.352       .  A
N1503      C1508   1.358       .  A
N1503      C1507   1.356       .  A
N1503      H1534   1.039       .  S
N1504      C1511   1.352       .  A
N1504      C1512   1.352       .  A
C1505      C1513   1.387       .  A
C1505      C1521   1.412       .  A
C1506      C1522   1.414       .  A
C1506      C1514   1.387       .  A
C1507      C1515   1.390       .  A
C1507      C1524   1.426       .  A
C1508      C1523   1.421       .  A
C1508      C1516   1.385       .  A
C1509      C1521   1.419       .  A
C1509      C1517   1.386       .  A
C1510      C1524   1.416       .  A
C1510      C1518   1.388       .  A
C1511      C1519   1.386       .  A
C1511      C1522   1.409       .  A
C1512      C1520   1.387       .  A
C1512      C1523   1.410       .  A
C1513      C1514   1.374       .  A
C1513      H1525   1.082       .  S
C1514      H1526   1.082       .  S
C1515      C1516   1.382       .  A
C1515      H1527   1.082       .  S
C1516      H1528   1.082       .  S
C1517      C1518   1.375       .  A
C1517      H1529   1.082       .  S
C1518      H1530   1.083       .  S
C1519      C1520   1.367       .  A
C1519      H1531   1.082       .  S
C1520      H1532   1.082       .  S
C1521      C1626   1.499       .  S
C1522      C1621   1.485       .  S
C1523      C1618   1.496       .  S
C1524      C1630   1.497       .  S
N1535      C1539   1.351   1_455  A
N1535      H1567   1.041       .  S
N1536      C1543   1.350       .  A
N1536      C1544   1.350       .  A
N1537      C1541   1.353       .  A
N1537      H1568   1.040       .  S
N1538      C1545   1.351       .  A
N1538      C1546   1.352       .  A
C1539      C1547   1.384       .  A
C1539      C1555   1.406       .  A
C1540      C1556   1.418       .  A
C1540      C1548   1.389       .  A
C1541      C1549   1.389       .  A
C1541      C1558   1.417       .  A
C1542      C1557   1.409       .  A
C1542      C1550   1.385       .  A
C1543      C1555   1.413       .  A
C1543      C1551   1.388       .  A
C1544      C1558   1.406       .  A
C1544      C1552   1.384       .  A
C1545      C1553   1.384       .  A
C1545      C1556   1.407       .  A
C1546      C1554   1.388       .  A
C1546      C1557   1.415       .  A
C1547      H1559   1.082       .  S
C1548      H1560   1.082       .  S
C1549      H1561   1.082       .  S
C1550      H1562   1.082       .  S
C1551      C1552   1.372       .  A
C1551      H1563   1.082       .  S
C1552      H1564   1.082       .  S
C1553      C1554   1.372       .  A
C1553      H1565   1.082       .  S
C1554      H1566   1.082       .  S
C1555      C1614   1.485       .  S
C1556      C1609   1.490       .  S
C1557      C1605   1.491       .  S
C1558      C1602   1.489       .  S
C1569      C1570   1.341       .  D
C1569      H1571   1.087       .  S
C1570      H1572   1.087       .  S
C1573      C1574   1.345       .  D
C1573      H1575   1.086       .  S
C1574      H1576   1.086       .  S
C1577      C1578   1.342       .  D
C1577      H1579   1.087       .  S
C1581      C1582   1.343       .  D
C1581      H1583   1.086       .  S
C1582      H1584   1.087       .  S
C1585      C1586   1.339       .  D
C1585      H1587   1.087       .  S
C1586      H1588   1.087       .  S
C1589      C1590   1.341       .  D
C1589      H1591   1.087       .  S
C1590      H1592   1.087       .  S
C1593      C1594   1.339       .  D
C1593      H1595   1.087       .  S
C1594      H1596   1.087       .  S
C1597      C1598   1.338       .  D
C1597      H1599   1.088       .  S
C1598      H1600   1.087       .  S
C1601      C1602   1.339       .  D
C1602      H1604   1.086       .  S
C1605      C1606   1.342       .  D
C1605      H1607   1.086       .  S
C1606      H1608   1.087       .  S
C1609      C1610   1.339       .  D
C1609      H1611   1.087       .  S
C1610      H1612   1.087       .  S
C1613      C1614   1.338       .  D
C1613      H1615   1.088       .  S
C1614      H1616   1.086       .  S
C1617      C1618   1.340       .  D
C1617      H1619   1.087       .  S
C1618      H1620   1.087       .  S
C1621      C1622   1.340       .  D
C1621      H1623   1.087       .  S
C1622      H1624   1.087       .  S
C1625      C1626   1.341       .  D
C1625      H1627   1.087       .  S
C1626      H1628   1.087       .  S
C1629      C1630   1.344       .  D
C1629      H1631   1.087       .  S
C1630      H1632   1.087       .  S
