geometry optimzed in LAMMPS
_audit_creation_date              2020-11-30 
_audit_creation_method            'lammps2cif' 
_symmetry_space_group_name_H-M    'P1' 
_symmetry_Int_Tables_number       1 
_symmetry_cell_setting            triclinic 
loop_ 
_symmetry_equiv_pos_as_xyz 
  x,y,z 
_cell_length_a                    47.16628179 
_cell_length_b                    47.31339552017947 
_cell_length_c                    42.12170124261501 
_cell_angle_alpha                 90.6609462091268 
_cell_angle_beta                  90.22259346724714 
_cell_angle_gamma                 90.06353584266853 
loop_ 
_atom_site_label 
_atom_site_type_symbol 
_atom_site_fract_x 
_atom_site_fract_y 
_atom_site_fract_z 
_atom_site_charge 
O1          O  0.34004463  0.34676565  0.38890065    -0.71800
O2          O  0.36911799  0.40250463  0.33267391    -0.72000
O3          O  0.36867850  0.34454629  0.33437189    -0.71900
O4          O  0.34023788  0.40399264  0.38750545    -0.71900
O5          O  0.38030659  0.40430957  0.41312379    -0.71800
O6          O  0.40917741  0.34605615  0.35908908    -0.71900
O7          O  0.40915789  0.40321200  0.35829384    -0.71800
O8          O  0.38057352  0.34661750  0.41359791    -0.72000
V9          V  0.35537253  0.37449479  0.36120728     1.35200
V10         V  0.39392607  0.37508269  0.38567702     1.35200
C11         C  0.35603856  0.33616382  0.40972361     0.77400
C12         C  0.39360533  0.41315998  0.33663183     0.77500
C13         C  0.39328064  0.33444775  0.33855531     0.77400
C14         C  0.35589460  0.41481256  0.40881449     0.77300
O15         O  0.09551201  0.40587489  0.35966677    -0.71800
O16         O  0.12318710  0.34897548  0.41511366    -0.72000
O17         O  0.12286805  0.40666690  0.41521569    -0.71900
O18         O  0.09567279  0.34882338  0.35958118    -0.71900
O19         O  0.13623300  0.34879037  0.33529310    -0.71800
O20         O  0.16396754  0.40599311  0.39207479    -0.71900
O21         O  0.16379272  0.34851250  0.39096112    -0.71800
O22         O  0.13652599  0.40674996  0.33640523    -0.72000
V23         V  0.11021812  0.37758314  0.38706687     1.35200
V24         V  0.14930064  0.37752868  0.36399919     1.35200
C25         C  0.11176005  0.41683289  0.33945217     0.77400
C26         C  0.14753012  0.33806136  0.41155985     0.77500
C27         C  0.14746970  0.41698925  0.41229316     0.77400
C28         C  0.11176510  0.33816245  0.33881049     0.77300
O29         O  0.03302884  0.24520646  0.29348147    -0.71800
O30         O  0.47449442  0.21760713  0.23831457    -0.72000
O31         O  0.03191961  0.21665817  0.23841687    -0.71900
O32         O  0.47514660  0.24565741  0.29368019    -0.71900
O33         O  0.47459354  0.28545525  0.26840719    -0.71800
O34         O  0.03379141  0.25741387  0.21525819    -0.71900
O35         O  0.47583689  0.25740552  0.21312206    -0.71800
O36         O  0.03186906  0.28597213  0.27027092    -0.72000
V37         V  0.00364644  0.23214233  0.26565441     1.35200
V38         V  0.00402872  0.27071362  0.24210106     1.35200
C39         C  0.04311702  0.26988533  0.29037990     0.77400
C40         C  0.46461902  0.23335343  0.21688316     0.77500
C41         C  0.04360687  0.23265245  0.21859765     0.77400
C42         C  0.46409592  0.26965725  0.28929219     0.77300
C43         C  0.38953944  0.26069580  0.30969989     0.80200
N44         N  0.41675441  0.25551231  0.30184064    -0.78100
C45         C  0.43659200  0.27612931  0.30368975     0.82600
N46         N  0.42921703  0.30248498  0.31433608    -0.78100
C47         C  0.40173477  0.30778194  0.32278508     0.82700
N48         N  0.38200560  0.28692840  0.31986757    -0.79800
C49         C  0.11790051  0.26434638  0.31251349     0.80200
N50         N  0.12452427  0.29115257  0.32127815    -0.78100
C51         C  0.10416993  0.31132937  0.32289388     0.82600
N52         N  0.07683990  0.30466921  0.31461102    -0.78100
C53         C  0.07026540  0.27758245  0.30547237     0.82700
N54         N  0.09081507  0.25764120  0.30504707    -0.79800
O55         O  0.47519682  0.49332931  0.20960241    -0.71800
O56         O  0.03129656  0.46453320  0.26602613    -0.72000
O57         O  0.47393755  0.46388264  0.26362406    -0.71900
O58         O  0.03325278  0.49380316  0.21227053    -0.71900
O59         O  0.03195932  0.03361189  0.23844456    -0.71800
O60         O  0.47262623  0.00381698  0.28955279    -0.71900
O61         O  0.03025038  0.00436633  0.29222561    -0.71800
O62         O  0.47454845  0.03322815  0.23565106    -0.72000
V63         V  0.00338083  0.47973363  0.23822195     1.35200
V64         V  0.00231900  0.01788390  0.26357041     1.35200
C65         C  0.46453840  0.01768460  0.21376607     0.77400
C66         C  0.04126847  0.48026986  0.28776148     0.77500
C67         C  0.46253003  0.47928388  0.28468792     0.77400
C68         C  0.04362409  0.01815753  0.21762143     0.77300
C69         C  0.11600390  0.48877600  0.30719004     0.80200
N70         N  0.08877558  0.49407642  0.29964416    -0.78100
C71         C  0.06866564  0.47394432  0.30255095     0.82600
N72         N  0.07582512  0.44801171  0.31413105    -0.78100
C73         C  0.10339654  0.44275081  0.32257421     0.82700
N74         N  0.12340675  0.46308858  0.31844131    -0.79800
C75         C  0.38821328  0.48604183  0.30806305     0.80200
N76         N  0.41495172  0.49177321  0.29891661    -0.78100
C77         C  0.43523243  0.47158908  0.29929909     0.82600
N78         N  0.42876028  0.44510433  0.31014370    -0.78100
C79         C  0.40159768  0.43935523  0.31987662     0.82700
N80         N  0.38152628  0.45982559  0.31813676    -0.79800
O81         O  0.22193691  0.24413591  0.46090265    -0.71800
O82         O  0.28150382  0.21441774  0.01367903    -0.72000
O83         O  0.22420179  0.21377260  0.01504591    -0.71900
O84         O  0.27974515  0.24453743  0.45905875    -0.71900
O85         O  0.28069749  0.28393495  0.48606432    -0.71800
O86         O  0.22348696  0.25402859  0.04034665    -0.71900
O87         O  0.28132049  0.25410462  0.04008658    -0.71800
O88         O  0.22344597  0.28412403  0.48671135    -0.72000
V89         V  0.25189690  0.23025204  0.48725443     1.35200
V90         V  0.25231389  0.26785183  0.01274516     1.35200
C91         C  0.21207776  0.26881192  0.46546842     0.77400
C92         C  0.29199218  0.22984900  0.03549052     0.77500
C93         C  0.21353470  0.22928247  0.03642548     0.77400
C94         C  0.29047820  0.26879207  0.46376598     0.77300
C95         C  0.36212894  0.26152150  0.43129801     0.80200
N96         N  0.33617719  0.25602718  0.44318463    -0.78100
C97         C  0.31653795  0.27662311  0.44680460     0.82600
N98         N  0.32261957  0.30353354  0.43729768    -0.78100
C99         C  0.34876808  0.30918186  0.42478491     0.82700
N100        N  0.36823493  0.28820349  0.42227892    -0.79800
C101        C  0.13733546  0.26575752  0.44054196     0.80200
N102        N  0.13290437  0.29205236  0.42931725    -0.78100
C103        C  0.15422635  0.31119428  0.42762786     0.82600
N104        N  0.18077946  0.30402995  0.43820898    -0.78100
C105        C  0.18533173  0.27746740  0.44997528     0.82700
N106        N  0.16363235  0.25868774  0.45068657    -0.79800
O107        O  0.41334437  0.15469974  0.14151062    -0.71800
O108        O  0.38349049  0.09581188  0.08874414    -0.72000
O109        O  0.38299406  0.15357383  0.08772075    -0.71900
O110        O  0.41365827  0.09745679  0.14225665    -0.71900
O111        O  0.37412265  0.09739144  0.16856447    -0.71800
O112        O  0.34345562  0.15381619  0.11399456    -0.71900
O113        O  0.34391080  0.09633418  0.11497798    -0.71800
O114        O  0.37383251  0.15530323  0.16787227    -0.72000
V115        V  0.39750191  0.12543847  0.11545679     1.35200
V116        V  0.35966689  0.12574886  0.14099480     1.35200
C117        C  0.39812035  0.16579800  0.16284293     0.77400
C118        C  0.35938889  0.08503033  0.09397301     0.77500
C119        C  0.35860525  0.16407997  0.09225250     0.77400
C120        C  0.39835722  0.08670852  0.16349183     0.77300
O121        O  0.22517568  0.03211566  0.02376830    -0.71800
O122        O  0.28156870  0.00699849  0.46562596    -0.72000
O123        O  0.22371572  0.00733044  0.46716125    -0.71900
O124        O  0.28254220  0.03219371  0.02261180    -0.71900
O125        O  0.28337966  0.49090840  0.04459413    -0.71800
O126        O  0.22447640  0.46574933  0.48853576    -0.71900
O127        O  0.28171190  0.46557605  0.48734538    -0.71800
O128        O  0.22525156  0.49084713  0.04575649    -0.72000
V129        V  0.25325651  0.01903599  0.49523675     1.35200
V130        V  0.25379755  0.47873932  0.01653681     1.35200
C131        C  0.21476361  0.01543583  0.04391621     0.77400
C132        C  0.29188111  0.48226913  0.46714877     0.77500
C133        C  0.21343839  0.48269380  0.46911774     0.77400
C134        C  0.29361500  0.01558973  0.04233159     0.77300
C135        C  0.13992134  0.49006061  0.44158161     0.80200
N136        N  0.13431075  0.46388917  0.42977976    -0.78100
C137        C  0.15462999  0.44363209  0.42876657     0.82600
N138        N  0.18111657  0.44940995  0.44040967    -0.78100
C139        C  0.18683444  0.47573632  0.45251627     0.82700
N140        N  0.16633153  0.49578055  0.45254937    -0.79800
C141        C  0.36354862  0.48893100  0.43354993     0.80200
N142        N  0.33788313  0.49492150  0.44633966    -0.78100
C143        C  0.31754354  0.47475598  0.44879453     0.82600
N144        N  0.32279271  0.44793218  0.43753102    -0.78100
C145        C  0.34863887  0.44194795  0.42431596     0.82700
N146        N  0.36860686  0.46239382  0.42296118    -0.79800
O147        O  0.13640408  0.15422246  0.17296773    -0.71800
O148        O  0.16588806  0.09619828  0.11882577    -0.72000
O149        O  0.16505288  0.15380080  0.11770866    -0.71900
O150        O  0.13703871  0.09654303  0.17337684    -0.71900
O151        O  0.09646741  0.09659319  0.14878223    -0.71800
O152        O  0.12494504  0.15200880  0.09228796    -0.71900
O153        O  0.12527504  0.09425421  0.09439782    -0.71800
O154        O  0.09632756  0.15352255  0.14737611    -0.72000
V155        V  0.15027508  0.12523785  0.14535537     1.35200
V156        V  0.11166538  0.12418010  0.12103490     1.35200
C157        C  0.11179620  0.16429870  0.16891027     0.77400
C158        C  0.14988220  0.08416068  0.09870391     0.77500
C159        C  0.14919544  0.16318943  0.09588914     0.77400
C160        C  0.11239717  0.08612343  0.16967558     0.77300
C161        C  0.14311630  0.00879679  0.07820903     0.80200
N162        N  0.13743919  0.03566786  0.08733484    -0.78100
C163        C  0.15721678  0.05629605  0.08484903     0.82600
N164        N  0.18314955  0.05002559  0.07202843    -0.78100
C165        C  0.18888252  0.02288927  0.06215605     0.82700
N166        N  0.16881530  0.00245744  0.06568372    -0.79800
C167        C  0.36680519  0.01023097  0.07181784     0.80200
N168        N  0.34052579  0.00333995  0.06127220    -0.78100
C169        C  0.32000581  0.02334565  0.05918957     0.82600
N170        N  0.32572794  0.05052640  0.06879458    -0.78100
C171        C  0.35220073  0.05730214  0.07987187     0.82700
N172        N  0.37256478  0.03714879  0.08078760    -0.79800
C173        C  0.36512074  0.23701461  0.06458988     0.80200
N174        N  0.37095936  0.21107658  0.07589246    -0.78100
C175        C  0.35081953  0.19061709  0.07618155     0.82600
N176        N  0.32437993  0.19608434  0.06391213    -0.78100
C177        C  0.31868640  0.22238318  0.05195437     0.82700
N178        N  0.33905765  0.24262849  0.05292308    -0.79800
C179        C  0.13897302  0.23305662  0.05998330     0.80200
N180        N  0.16508402  0.23954373  0.04927401    -0.78100
C181        C  0.18690182  0.22115736  0.05216497     0.82600
N182        N  0.18261106  0.19560554  0.06664478    -0.78100
C183        C  0.15609350  0.18907874  0.07779819     0.82700
N184        N  0.13466999  0.20782447  0.07395711    -0.79800
C185        C  0.11756748  0.01149107  0.19101223     0.80200
N186        N  0.12419354  0.03839449  0.18336169    -0.78100
C187        C  0.10466532  0.05929287  0.18491255     0.82600
N188        N  0.07772596  0.05323812  0.19491916    -0.78100
C189        C  0.07101467  0.02612015  0.20324415     0.82700
N190        N  0.09090690  0.00556167  0.20066578    -0.79800
C191        C  0.39211924  0.01141688  0.18217251     0.80200
N192        N  0.41840466  0.00523674  0.19301012    -0.78100
C193        C  0.43837768  0.02562762  0.19682460     0.82600
N194        N  0.43220511  0.05289863  0.18870797    -0.78100
C195        C  0.40576231  0.05920182  0.17731782     0.82700
N196        N  0.38605422  0.03845339  0.17448146    -0.79800
C197        C  0.39301937  0.24116960  0.18305017     0.80200
N198        N  0.41898551  0.24683077  0.19543109    -0.78100
C199        C  0.43838280  0.22597158  0.19948690     0.82600
N200        N  0.43195914  0.19890174  0.19010359    -0.78100
C201        C  0.40585610  0.19321472  0.17725724     0.82700
N202        N  0.38674499  0.21431538  0.17417614    -0.79800
C203        C  0.11711306  0.23892272  0.19134325     0.80200
N204        N  0.09048528  0.24509757  0.20092957    -0.78100
C205        C  0.07054459  0.22460272  0.20338239     0.82600
N206        N  0.07706871  0.19732939  0.19479021    -0.78100
C207        C  0.10399285  0.19107953  0.18481671     0.82700
N208        N  0.12365648  0.21187463  0.18373240    -0.79800
N209        N  0.00430151  0.41627750  0.07320585    -0.36600
N210        N  0.04750175  0.37258654  0.06865761    -0.57200
N211        N  0.00338261  0.33014958  0.06143479    -0.36600
N212        N  0.46023382  0.37354967  0.07025791    -0.57200
C213        C  0.02730449  0.43039403  0.08405348     0.27000
C214        C  0.48130867  0.43099617  0.08270351     0.27000
C215        C  0.02640060  0.31338301  0.06440252     0.27000
C216        C  0.48025635  0.31411377  0.06725394     0.27000
C217        C  0.06411624  0.39583733  0.06750027     0.35600
C218        C  0.06387612  0.35045290  0.05982547     0.35600
C219        C  0.44463591  0.39693223  0.06515518     0.35600
C220        C  0.44391925  0.35146509  0.06121022     0.35600
C221        C  0.01883876  0.45435598  0.10077793    -0.21900
C222        C  0.48968443  0.45475227  0.09986906    -0.21900
C223        C  0.01750562  0.28607780  0.07130596    -0.21900
C224        C  0.48859942  0.28677125  0.07393643    -0.21900
C225        C  0.09123794  0.38844987  0.05802989    -0.23000
C226        C  0.09124013  0.35969035  0.05377649    -0.23000
C227        C  0.41827349  0.38969157  0.05283319    -0.23000
C228        C  0.41775326  0.36075296  0.05054567    -0.23000
C229        C  0.05565802  0.42327118  0.07719726    -0.18300
C230        C  0.45315591  0.42439647  0.07426618    -0.18300
C231        C  0.45174715  0.32297800  0.06457938    -0.18300
C232        C  0.05500814  0.32185115  0.05980444    -0.18300
H233        H  0.03229671  0.47007067  0.11210502     0.14600
H234        H  0.47619400  0.47080040  0.11035233     0.14600
H235        H  0.03006848  0.26716437  0.07378469     0.14600
H236        H  0.47528018  0.26885409  0.07940492     0.14600
H237        H  0.10938782  0.40218740  0.05522563     0.12900
H238        H  0.10955779  0.34715948  0.04744984     0.12900
H239        H  0.40106237  0.40373263  0.04667564     0.12900
H240        H  0.40014818  0.34799087  0.04212341     0.12900
H241        H  0.00427559  0.39872260  0.05806142     0.26100
H242        H  0.00338185  0.35104974  0.05407685     0.26100
N243        N  0.25356044  0.41853447  0.16615224    -0.36600
N244        N  0.29669940  0.37572509  0.16666442    -0.57200
N245        N  0.25392197  0.33168752  0.16674736    -0.36600
N246        N  0.21087957  0.37462851  0.17073716    -0.57200
C247        C  0.27679821  0.43308910  0.17536371     0.27000
C248        C  0.23098777  0.43240390  0.17800209     0.27000
C249        C  0.27740766  0.31783038  0.17609109     0.27000
C250        C  0.23142068  0.31723372  0.17775866     0.27000
C251        C  0.31158113  0.39843310  0.15721482     0.35600
C252        C  0.31196552  0.35289961  0.15798831     0.35600
C253        C  0.19520391  0.39727743  0.16289876     0.35600
C254        C  0.19520567  0.35174631  0.16291056     0.35600
C255        C  0.26901305  0.45642873  0.19344765    -0.21900
C256        C  0.23988633  0.45596854  0.19520086    -0.21900
C257        C  0.26984834  0.29423024  0.19338268    -0.21900
C258        C  0.24063559  0.29385852  0.19446912    -0.21900
C259        C  0.33616269  0.39008879  0.14207758    -0.23000
C260        C  0.33653877  0.36103778  0.14272132    -0.23000
C261        C  0.16970895  0.38886065  0.14964070    -0.23000
C262        C  0.16950417  0.35980907  0.14983202    -0.23000
C263        C  0.30449807  0.42628761  0.16590614    -0.18300
C264        C  0.20272653  0.42513164  0.17119416    -0.18300
C265        C  0.20300103  0.32408811  0.17097797    -0.18300
C266        C  0.30515438  0.32527857  0.16720026    -0.18300
H267        H  0.28288846  0.47217565  0.20393885     0.14600
H268        H  0.22674301  0.47131648  0.20735624     0.14600
H269        H  0.28389653  0.27877606  0.20376197     0.14600
H270        H  0.22768689  0.27808286  0.20590474     0.14600
H271        H  0.35195549  0.40365700  0.13182442     0.12900
H272        H  0.35290079  0.34743227  0.13325564     0.12900
H273        H  0.15324674  0.40244385  0.14089211     0.12900
H274        H  0.15242309  0.34622646  0.14166998     0.12900
H275        H  0.25300332  0.40112213  0.15072742     0.26100
H276        H  0.25325284  0.34908498  0.15178361     0.26100
N277        N  0.20879809  0.12502749  0.29938350    -0.36600
N278        N  0.25217740  0.16747590  0.30139223    -0.57200
N279        N  0.29508124  0.12328281  0.30283724    -0.36600
N280        N  0.25159579  0.08084278  0.29638825    -0.57200
C281        C  0.19399859  0.14870623  0.29315311     0.27000
C282        C  0.19390691  0.10303140  0.28739148     0.27000
C283        C  0.30990310  0.14597845  0.29305559     0.27000
C284        C  0.30968337  0.10003313  0.29385360     0.27000
C285        C  0.22986218  0.18240830  0.31230721     0.35600
C286        C  0.27554358  0.18172464  0.31071154     0.35600
C287        C  0.22791908  0.06588438  0.30209165     0.35600
C288        C  0.27339903  0.06516609  0.30707317     0.35600
C289        C  0.16937342  0.14179819  0.27670719    -0.21900
C290        C  0.16929890  0.11277456  0.27308767    -0.21900
C291        C  0.33410004  0.13700797  0.27722757    -0.21900
C292        C  0.33408953  0.10788405  0.27802065    -0.21900
C293        C  0.23902901  0.20624374  0.32881498    -0.23000
C294        C  0.26814501  0.20577511  0.32786114    -0.23000
C295        C  0.23459652  0.04050217  0.31645618    -0.23000
C296        C  0.26357137  0.04018546  0.31994798    -0.23000
C297        C  0.20154962  0.17580498  0.30456498    -0.18300
C298        C  0.20067423  0.07447832  0.29263862    -0.18300
C299        C  0.30193257  0.07218626  0.30159021    -0.13500
C300        C  0.30306970  0.17427608  0.30096851    -0.18300
H301        H  0.15293439  0.15607995  0.26885162     0.14600
H302        H  0.15271679  0.10020356  0.26203504     0.14600
H303        H  0.35033505  0.15007180  0.26674909     0.14600
H304        H  0.35018251  0.09408597  0.26817685     0.14600
H305        H  0.22611518  0.22241804  0.33994320     0.12900
H306        H  0.28222725  0.22151665  0.33810353     0.12900
H307        H  0.22015066  0.02396740  0.32355452     0.12900
H308        H  0.27601509  0.02323613  0.32993319     0.12900
H309        H  0.22689444  0.12377323  0.31352929     0.26100
H310        H  0.27701515  0.12359517  0.31700964     0.26100
N311        N  0.00123338  0.16967587  0.42944723    -0.36600
N312        N  0.04441080  0.12684112  0.43872348    -0.57200
N313        N  0.00137297  0.08349641  0.43234138    -0.36600
N314        N  0.45832361  0.12632059  0.42671375    -0.57200
C315        C  0.02275840  0.18461014  0.44259486     0.27000
C316        C  0.47716630  0.18428800  0.43498402     0.27000
C317        C  0.02369736  0.06933168  0.44432986     0.27000
C318        C  0.47776420  0.06937578  0.44087532     0.27000
C319        C  0.06043011  0.14977355  0.43269099     0.35600
C320        C  0.06060008  0.10409157  0.43194490     0.35600
C321        C  0.44368743  0.14836477  0.41520983     0.35600
C322        C  0.44348274  0.10296987  0.41878978     0.35600
C323        C  0.01228854  0.20899045  0.45686070    -0.21900
C324        C  0.48337014  0.20874559  0.45212825    -0.21900
C325        C  0.01430148  0.04598410  0.46086350    -0.21900
C326        C  0.48516334  0.04606932  0.45881147    -0.21900
C327        C  0.08695848  0.14165363  0.42191927    -0.23000
C328        C  0.08705311  0.11257752  0.42137203    -0.23000
C329        C  0.41943687  0.13904253  0.39957459    -0.23000
C330        C  0.41933386  0.11007745  0.40180286    -0.23000
C331        C  0.05169331  0.17767947  0.43938467    -0.18300
C332        C  0.45021431  0.17659614  0.42303874    -0.18300
C333        C  0.45011405  0.07605991  0.43046152    -0.18300
C334        C  0.05222030  0.07607135  0.43819441    -0.18300
H335        H  0.02429019  0.22537181  0.46903249     0.14600
H336        H  0.46868180  0.22489873  0.46000507     0.14600
H337        H  0.02715068  0.03036838  0.47276637     0.14600
H338        H  0.47107956  0.03050290  0.46886472     0.14600
H339        H  0.10444918  0.15523175  0.41548824     0.12900
H340        H  0.10466562  0.09927342  0.41440932     0.12900
H341        H  0.40310169  0.15181964  0.38874849     0.12900
H342        H  0.40292380  0.09599630  0.39300165     0.12900
H343        H  0.00311415  0.15147372  0.41541265     0.26100
H344        H  0.00246960  0.10063661  0.41710324     0.26100
C345        C  0.13835355  0.26147350  0.18628565    -0.00200
C346        C  0.16043568  0.25608221  0.16468457    -0.12100
C347        C  0.18118764  0.27633271  0.15873290     0.02100
C348        C  0.18052695  0.30246358  0.17506890    -0.00300
C349        C  0.15823768  0.30820692  0.19611708    -0.12000
C350        C  0.13704991  0.28821189  0.20160246     0.01900
H351        H  0.16131847  0.23610305  0.15183413     0.14900
H352        H  0.15758618  0.32837585  0.20861800     0.14900
C353        C  0.11471202  0.29584546  0.22338853     0.36600
C354        C  0.20248011  0.26999750  0.13517594     0.36500
N355        N  0.09675133  0.30233564  0.24060678    -0.43800
N356        N  0.21946530  0.26476474  0.11626579    -0.43800
C357        C  0.37143702  0.26369952  0.17880539    -0.00200
C358        C  0.34886121  0.25848492  0.15752538    -0.12100
C359        C  0.32753487  0.27846219  0.15284342     0.02100
C360        C  0.32817413  0.30413122  0.17001382    -0.00300
C361        C  0.35061083  0.30961173  0.19110624    -0.12000
C362        C  0.37219637  0.28981309  0.19562218     0.01900
H363        H  0.34799515  0.23888232  0.14395242     0.14900
H364        H  0.35097406  0.32933870  0.20450241     0.14900
C365        C  0.39405722  0.29678354  0.21847048     0.36600
C366        C  0.30549241  0.27239675  0.12986924     0.36500
N367        N  0.41148529  0.30269306  0.23678462    -0.43800
N368        N  0.28775127  0.26760530  0.11154073    -0.43800
C369        C  0.37017267  0.48905396  0.17820899    -0.00200
C370        C  0.34669139  0.49449519  0.15847785    -0.12100
C371        C  0.32552942  0.47420382  0.15352396     0.02100
C372        C  0.32723027  0.44796614  0.16890052    -0.00300
C373        C  0.35039903  0.44250212  0.18878603    -0.12000
C374        C  0.37183376  0.46253706  0.19345657     0.01900
H375        H  0.34505604  0.51445066  0.14619576     0.14900
H376        H  0.35156052  0.42248962  0.20104951     0.14900
C377        C  0.39470723  0.95513413  0.21462596     0.36600
C378        C  0.30262185  0.48057800  0.13201080     0.36500
N379        N  0.41300566  0.94877352  0.23144208    -0.43800
N380        N  0.28417964  0.48574387  0.11488322    -0.43800
C381        C  0.13888820  0.48878724  0.18646916    -0.00200
C382        C  0.16152053  0.49375812  0.16559464    -0.12100
C383        C  0.18178279  0.47298744  0.15941870     0.02100
C384        C  0.18033460  0.44690198  0.17510015    -0.00300
C385        C  0.15790541  0.44179215  0.19596932    -0.12000
C386        C  0.13705213  0.46219674  0.20146355     0.01900
H387        H  0.16300091  0.01362212  0.15314367     0.14900
H388        H  0.15680845  0.42176435  0.20819978     0.14900
C389        C  0.11442682  0.45500698  0.22283938     0.36600
C390        C  0.20320525  0.47848993  0.13592872     0.36500
N391        N  0.09626306  0.44871189  0.23972069    -0.43800
N392        N  0.22040476  0.48274277  0.11709013    -0.43800
C393        C  0.11626144  0.25449119  0.05878958    -0.00200
C394        C  0.11383752  0.27202542  0.03220075    -0.12100
C395        C  0.09329021  0.29341487  0.03133556     0.02100
C396        C  0.07714438  0.29947709  0.05877008    -0.00300
C397        C  0.08076123  0.28282283  0.08570614    -0.12000
C398        C  0.09799171  0.25903881  0.08471660     0.01900
H399        H  0.12725405  0.26834675  0.01172732     0.14900
H400        H  0.06802728  0.28697723  0.10665563     0.14900
C401        C  0.09365502  0.23810621  0.10859443     0.36600
C402        C  0.08886225  0.30848957  0.00212503     0.36500
N403        N  0.08854921  0.22044397  0.12634617    -0.43800
N404        N  0.08763635  0.32326570  0.48087979    -0.43800
C405        C  0.38717426  0.25883235  0.06432071    -0.00200
C406        C  0.38607553  0.28090966  0.08668366    -0.12100
C407        C  0.40746839  0.30136436  0.08796702     0.02100
C408        C  0.42898125  0.30120603  0.06472747    -0.00300
C409        C  0.42954334  0.27943621  0.04184606    -0.12000
C410        C  0.40962559  0.25763707  0.04246745     0.01900
H411        H  0.36905567  0.28163622  0.10376973     0.14900
H412        H  0.44634860  0.27886092  0.02433859     0.14900
C413        C  0.41363240  0.23357599  0.02172964     0.36600
C414        C  0.40791436  0.32120793  0.11427830     0.36500
N415        N  0.41769134  0.21392366  0.00585597    -0.43800
N416        N  0.40868779  0.33686764  0.13557212    -0.43800
C417        C  0.43161140  0.44718108  0.07531059    -0.00200
C418        C  0.43455291  0.47023778  0.05498694    -0.12100
C419        C  0.41391716  0.49137393  0.05411887     0.02100
C420        C  0.38928751  0.48882155  0.07274686    -0.00300
C421        C  0.38647136  0.46587085  0.09325256    -0.12000
C422        C  0.40799344  0.44571110  0.09558687     0.01900
H423        H  0.45299139  0.47164657  0.03976695     0.14900
H424        H  0.36783171  0.46404339  0.10794000     0.14900
C425        C  0.40635948  0.42437971  0.11974232     0.36600
C426        C  0.41830810  0.01517921  0.03361501     0.36500
N427        N  0.40595140  0.40732016  0.13920028    -0.43800
N428        N  0.42215784  0.03438451  0.01744110    -0.43800
C429        C  0.12032847  0.48745822  0.07898315    -0.00200
C430        C  0.12254842  0.46415935  0.09921164    -0.12100
C431        C  0.10058421  0.44421029  0.10073066     0.02100
C432        C  0.07745271  0.44597362  0.07960542    -0.00300
C433        C  0.07494241  0.46955848  0.05999432    -0.12000
C434        C  0.09560498  0.49071739  0.06042664     0.01900
H435        H  0.14093020  0.46194128  0.11434519     0.14900
H436        H  0.05661643  0.47153642  0.04453707     0.14900
C437        C  0.09062775  0.51579017  0.04209158     0.36600
C438        C  0.10100197  0.42282749  0.12489731     0.36500
N439        N  0.08753517  0.03597073  0.52847884    -0.43800
N440        N  0.10004086  0.40564917  0.14420505    -0.43800
C441        C  0.38601432  0.01098718  0.43208001    -0.00200
C442        C  0.38115945  0.03717791  0.44728499    -0.12100
C443        C  0.40170159  0.05847594  0.44744966     0.02100
C444        C  0.42765829  0.05405180  0.43163062    -0.00300
C445        C  0.43267288  0.02806361  0.41654393    -0.12000
C446        C  0.41239333  0.00659859  0.41660392     0.01900
H447        H  0.36143581  0.04101371  0.45973218     0.14900
H448        H  0.45261233  0.02463966  0.40430587     0.14900
C449        C  0.41987110  0.98060496  0.40047659     0.36600
C450        C  0.39598097  0.08422542  0.46504616     0.36500
N451        N  0.42647217  0.45993257  0.38761634    -0.43800
N452        N  0.39183153  0.10327871  0.98119220    -0.43800
C453        C  0.07398567  0.05334832  0.43970300    -0.00200
C454        C  0.09757632  0.05716648  0.45958681    -0.12100
C455        C  0.11926456  0.03710757  0.46073590     0.02100
C456        C  0.11736415  0.01207581  0.44199202    -0.00300
C457        C  0.09322941  0.00800576  0.42268648    -0.12000
C458        C  0.07174268  0.02831347  0.42130879     0.01900
H459        H  0.09912035  0.07612978  0.47423466     0.14900
H460        H  0.09142291  0.48926061  0.40774845     0.14900
C461        C  0.04860636  0.02379122  0.39918671     0.36600
C462        C  0.14279630  0.04303469  0.48178911     0.36500
N463        N  0.03029853  0.02035677  0.38117017    -0.43800
N464        N  0.16155909  0.04817597  0.49866038    -0.43800
C465        C  0.07312365  0.20079150  0.44142966    -0.00200
C466        C  0.06974907  0.22430639  0.42182367    -0.12100
C467        C  0.08939741  0.24641555  0.42223228     0.02100
C468        C  0.11402605  0.24459650  0.44148729    -0.00300
C469        C  0.11689605  0.22135417  0.46180803    -0.12000
C470        C  0.09650657  0.19988680  0.46238956     0.01900
H471        H  0.05151571  0.22541055  0.40609237     0.14900
H472        H  0.13502205  0.22000542  0.47764270     0.14900
C473        C  0.09985177  0.17748540  0.48509755     0.36600
C474        C  0.08319180  0.27055997  0.40281571     0.36500
N475        N  0.10264134  0.15956426  0.50331062    -0.43800
N476        N  0.07759944  0.29006857  0.38774321    -0.43800
C477        C  0.38366786  0.23875982  0.42807090    -0.00200
C478        C  0.40779247  0.24370979  0.40929417    -0.12100
C479        C  0.42939087  0.22360992  0.40669863     0.02100
C480        C  0.42705915  0.19784480  0.42290734    -0.00300
C481        C  0.40266486  0.19237184  0.44065023    -0.12000
C482        C  0.38113578  0.21240253  0.44355087     0.01900
H483        H  0.40997108  0.26340534  0.39661678     0.14900
H484        H  0.40095234  0.17265016  0.45342397     0.14900
C485        C  0.35771665  0.20541100  0.46401365     0.36600
C486        C  0.45357502  0.22969335  0.38696422     0.36500
N487        N  0.33915467  0.19945214  0.48052638    -0.43800
N488        N  0.47294554  0.23431580  0.37105742    -0.43800
C489        C  0.32411923  0.04983314  0.30270134    -0.00200
C490        C  0.34849839  0.05456684  0.32126304    -0.12100
C491        C  0.37011902  0.03444095  0.32240235     0.02100
C492        C  0.36653618  0.00818894  0.30670204    -0.00300
C493        C  0.34234386  0.00339777  0.28805760    -0.12000
C494        C  0.32170628  0.02436738  0.28497986     0.01900
H495        H  0.35092909  0.07434930  0.33427653     0.14900
H496        H  0.34016087  0.48370043  0.27478150     0.14900
C497        C  0.29903694  0.01988311  0.26235496     0.36600
C498        C  0.39613041  0.04169558  0.33870371     0.36500
N499        N  0.28074202  0.01664482  0.24430323    -0.43800
N500        N  0.41729778  0.04798418  0.35081461    -0.43800
C501        C  0.17748977  0.05352407  0.29323892    -0.00200
C502        C  0.15637329  0.05714036  0.31608455    -0.12100
C503        C  0.13571615  0.03656412  0.32024813     0.02100
C504        C  0.13713409  0.01101284  0.30281936    -0.00300
C505        C  0.15765023  0.00772258  0.27905761    -0.12000
C506        C  0.17732826  0.02925336  0.27350048     0.01900
H507        H  0.15611979  0.07612963  0.33079248     0.14900
H508        H  0.15776314  0.98876462  0.26434300     0.14900
C509        C  0.19627164  0.02675350  0.24679344     0.36600
C510        C  0.11304065  0.04278829  0.34196103     0.36500
N511        N  0.21109854  0.02518398  0.22502585    -0.43800
N512        N  0.09481055  0.04909582  0.35882797    -0.43800
C513        C  0.17969077  0.19832828  0.30693369    -0.00200
C514        C  0.18429201  0.22385408  0.29104585    -0.12100
C515        C  0.16496348  0.24607879  0.29356327     0.02100
C516        C  0.13981829  0.24240044  0.31099285    -0.00300
C517        C  0.13497105  0.21685309  0.32660674    -0.12000
C518        C  0.15493005  0.19506766  0.32530634     0.01900
H519        H  0.20330036  0.22652960  0.27696502     0.14900
H520        H  0.11580682  0.21418003  0.34043488     0.14900
C521        C  0.14990112  0.17003584  0.34377990     0.36600
C522        C  0.17144546  0.27229744  0.27797606     0.36500
N523        N  0.14579288  0.15002085  0.35862368    -0.43800
N524        N  0.17704263  0.29341229  0.26590859    -0.43800
C525        C  0.36822454  0.23807037  0.30638609    -0.00200
C526        C  0.34257280  0.24399921  0.29092487    -0.12100
C527        C  0.32187957  0.22303309  0.28691978     0.02100
C528        C  0.32572628  0.19628639  0.30102902    -0.00300
C529        C  0.35157242  0.19041660  0.31614619    -0.12000
C530        C  0.37325703  0.21043796  0.31740507     0.01900
H531        H  0.33914509  0.26475986  0.28093950     0.14900
H532        H  0.35503909  0.16987554  0.32665229     0.14900
C533        C  0.40053278  0.20145969  0.32912804     0.36600
C534        C  0.29738639  0.22922894  0.26750043     0.36500
N535        N  0.42239123  0.19326698  0.33746726    -0.43800
N536        N  0.27776987  0.23413596  0.25192572    -0.43800
O537        O  0.34023742  0.34587645  0.88821154    -0.71800
O538        O  0.36931897  0.40260687  0.83316197    -0.72000
O539        O  0.36889042  0.34457002  0.83371964    -0.71900
O540        O  0.34045403  0.40316400  0.88799236    -0.71900
O541        O  0.38056212  0.40311427  0.91353466    -0.71800
O542        O  0.40934201  0.34563710  0.85856927    -0.71900
O543        O  0.40939628  0.40286041  0.85869493    -0.71800
O544        O  0.38071588  0.34539071  0.91299099    -0.72000
V545        V  0.35558159  0.37409415  0.86111035     1.35200
V546        V  0.39412917  0.37429444  0.88559207     1.35200
C547        C  0.35618054  0.33497236  0.90889027     0.77400
C548        C  0.39381485  0.41320879  0.83727699     0.77500
C549        C  0.39341555  0.33429716  0.83789909     0.77400
C550        C  0.35616592  0.41369425  0.90942950     0.77300
O551        O  0.09561996  0.40574272  0.85994714    -0.71800
O552        O  0.12324489  0.34815187  0.91464859    -0.72000
O553        O  0.12310370  0.40585908  0.91543456    -0.71900
O554        O  0.09551015  0.34868670  0.85924054    -0.71900
O555        O  0.13611101  0.34844146  0.83503433    -0.71800
O556        O  0.16403101  0.40549467  0.89190749    -0.71900
O557        O  0.16388920  0.34800290  0.89058419    -0.71800
O558        O  0.13646811  0.40636127  0.83631307    -0.72000
V559        V  0.11027782  0.37710863  0.88698988     1.35200
V560        V  0.14929497  0.37709592  0.86378290     1.35200
C561        C  0.11179472  0.41660135  0.83957646     0.77400
C562        C  0.14763727  0.33733203  0.91104688     0.77500
C563        C  0.14764539  0.41627321  0.91239283     0.77400
C564        C  0.11155726  0.33798319  0.83846295     0.77300
O565        O  0.03273188  0.24526278  0.79259231    -0.71800
O566        O  0.47448238  0.21795322  0.73696981    -0.72000
O567        O  0.03188710  0.21751023  0.73701787    -0.71900
O568        O  0.47489335  0.24522056  0.79277497    -0.71900
O569        O  0.47432380  0.28548491  0.76842830    -0.71800
O570        O  0.03322359  0.25849737  0.71431919    -0.71900
O571        O  0.47525066  0.25822298  0.71269021    -0.71800
O572        O  0.03153000  0.28624883  0.76986146    -0.72000
V573        V  0.00350127  0.23235595  0.76452863     1.35200
V574        V  0.00358967  0.27125991  0.74164190     1.35200
C575        C  0.04276105  0.26999404  0.78980833     0.77400
C576        C  0.46429747  0.23399287  0.71600872     0.77500
C577        C  0.04326295  0.23378909  0.71725898     0.77400
C578        C  0.46385942  0.26930407  0.78894830     0.77300
C579        C  0.38926341  0.26058897  0.80922020     0.80200
N580        N  0.41651110  0.25517315  0.80163703    -0.78100
C581        C  0.43646822  0.27568166  0.80357696     0.82600
N582        N  0.42918292  0.30210871  0.81400859    -0.78100
C583        C  0.40169594  0.30762925  0.82214186     0.82700
N584        N  0.38184675  0.28691241  0.81917317    -0.79800
C585        C  0.11715362  0.26391660  0.81321638     0.80200
N586        N  0.12397766  0.29075193  0.82162968    -0.78100
C587        C  0.10385325  0.31116973  0.82260885     0.82600
N588        N  0.07655092  0.30471412  0.81401395    -0.78100
C589        C  0.06979691  0.27759292  0.80516948     0.82700
N590        N  0.09010853  0.25741414  0.80540248    -0.79800
O591        O  0.47499361  0.49429400  0.71060751    -0.71800
O592        O  0.03132441  0.46494830  0.76632763    -0.72000
O593        O  0.47399494  0.46448610  0.76445539    -0.71900
O594        O  0.03293556  0.49449914  0.71274800    -0.71900
O595        O  0.03209635  0.03413446  0.73926296    -0.71800
O596        O  0.47281102  0.00431333  0.79057908    -0.71900
O597        O  0.03056997  0.00458897  0.79289390    -0.71800
O598        O  0.47469647  0.03411502  0.73681825    -0.72000
V599        V  0.00326409  0.48040529  0.73890848     1.35200
V600        V  0.00251841  0.01842415  0.76451187     1.35200
C601        C  0.46456576  0.01874067  0.71484662     0.77400
C602        C  0.04148514  0.48048690  0.78812501     0.77500
C603        C  0.46269984  0.47979696  0.78566986     0.77400
C604        C  0.04343495  0.01878425  0.71810757     0.77300
C605        C  0.11657915  0.48817379  0.80639451     0.80200
N606        N  0.08934977  0.49375409  0.79909019    -0.78100
C607        C  0.06900554  0.47392928  0.80253443     0.82600
N608        N  0.07594293  0.44803882  0.81441011    -0.78100
C609        C  0.10352172  0.44252308  0.82262805     0.82700
N610        N  0.12374314  0.46256023  0.81800709    -0.79800
C611        C  0.38823461  0.48620367  0.80860097     0.80200
N612        N  0.41500329  0.49204599  0.79965082    -0.78100
C613        C  0.43541046  0.47200847  0.80030986     0.82600
N614        N  0.42901803  0.44551247  0.81122272    -0.78100
C615        C  0.40183232  0.43962949  0.82082753     0.82700
N616        N  0.38163259  0.45998637  0.81880327    -0.79800
O617        O  0.22203860  0.24330987  0.96095562    -0.71800
O618        O  0.28159155  0.21486485  0.51301063    -0.72000
O619        O  0.22425572  0.21409079  0.51458701    -0.71900
O620        O  0.27985129  0.24353052  0.95924922    -0.71900
O621        O  0.28087664  0.28319415  0.98573463    -0.71800
O622        O  0.22361379  0.25408869  0.54040922    -0.71900
O623        O  0.28144439  0.25428665  0.53992252    -0.71800
O624        O  0.22359861  0.28356450  0.98621454    -0.72000
V625        V  0.25191784  0.22961233  0.98758613     1.35200
V626        V  0.25228556  0.26823608  0.51291394     1.35200
C627        C  0.21224008  0.26807081  0.96513047     0.77400
C628        C  0.29219523  0.23013135  0.53489263     0.77500
C629        C  0.21364660  0.22940185  0.53618904     0.77400
C630        C  0.29061418  0.26782283  0.96358656     0.77300
C631        C  0.36185613  0.26005842  0.92996596     0.80200
N632        N  0.33601480  0.25475854  0.94227463    -0.78100
C633        C  0.31656717  0.27549759  0.94622753     0.82600
N634        N  0.32274292  0.30237450  0.93662948    -0.78100
C635        C  0.34876562  0.30783908  0.92365550     0.82700
N636        N  0.36804268  0.28670228  0.92082605    -0.79800
C637        C  0.13769742  0.26475976  0.93941532     0.80200
N638        N  0.13320493  0.29107923  0.92828562    -0.78100
C639        C  0.15443135  0.31034789  0.92689016     0.82600
N640        N  0.18095414  0.30327155  0.93769077    -0.78100
C641        C  0.18557222  0.27666491  0.94934923     0.82700
N642        N  0.16395536  0.25777756  0.94976464    -0.79800
O643        O  0.41369096  0.15532399  0.64007722    -0.71800
O644        O  0.38423331  0.09574503  0.58784351    -0.72000
O645        O  0.38374748  0.15356756  0.58599217    -0.71900
O646        O  0.41413976  0.09803017  0.64161120    -0.71900
O647        O  0.37431630  0.09800458  0.66735700    -0.71800
O648        O  0.34415550  0.15420709  0.61216091    -0.71900
O649        O  0.34438459  0.09683503  0.61354976    -0.71800
O650        O  0.37409250  0.15585126  0.66628038    -0.72000
V651        V  0.39809463  0.12571700  0.61425396     1.35200
V652        V  0.36009168  0.12625298  0.63947221     1.35200
C653        C  0.39833208  0.16643163  0.66130565     0.77400
C654        C  0.35997473  0.08521021  0.59290774     0.77500
C655        C  0.35939611  0.16422909  0.59035942     0.77400
C656        C  0.39867179  0.08739926  0.66278710     0.77300
O657        O  0.22518000  0.03265629  0.52435570    -0.71800
O658        O  0.28200454  0.00596268  0.96585551    -0.72000
O659        O  0.22418426  0.00625658  0.96689824    -0.71900
O660        O  0.28250538  0.03265994  0.52269813    -0.71900
O661        O  0.28325970  0.49122468  0.54441366    -0.71800
O662        O  0.22466793  0.46495923  0.98894697    -0.71900
O663        O  0.28186132  0.46469029  0.98788927    -0.71800
O664        O  0.22521025  0.49109781  0.54572098    -0.72000
V665        V  0.25349385  0.01826024  0.99507184     1.35200
V666        V  0.25366490  0.47929780  0.51624057     1.35200
C667        C  0.21485339  0.01578610  0.54435690     0.77400
C668        C  0.29218587  0.48121437  0.96762657     0.77500
C669        C  0.21378226  0.48170768  0.96922280     0.77400
C670        C  0.29355912  0.01591179  0.54228171     0.77300
C671        C  0.14006777  0.48903410  0.94269522     0.80200
N672        N  0.13444307  0.46294826  0.93063763    -0.78100
C673        C  0.15483408  0.44277456  0.92912042     0.82600
N674        N  0.18140322  0.44853436  0.94050837    -0.78100
C675        C  0.18711304  0.47476168  0.95286382     0.82700
N676        N  0.16654540  0.49471802  0.95341631    -0.79800
C677        C  0.36435160  0.48736628  0.93546009     0.80200
N678        N  0.33857239  0.49350453  0.94783507    -0.78100
C679        C  0.31798150  0.47355096  0.94965387     0.82600
N680        N  0.32307202  0.44678863  0.93813142    -0.78100
C681        C  0.34904496  0.44065811  0.92532622     0.82700
N682        N  0.36927199  0.46089002  0.92461088    -0.79800
O683        O  0.13565344  0.15510675  0.67263581    -0.71800
O684        O  0.16592015  0.09670364  0.61962271    -0.72000
O685        O  0.16502756  0.15425478  0.61799533    -0.71900
O686        O  0.13629220  0.09735881  0.67359221    -0.71900
O687        O  0.09603992  0.09723192  0.64833853    -0.71800
O688        O  0.12532746  0.15211408  0.59178920    -0.71900
O689        O  0.12562739  0.09447838  0.59454685    -0.71800
O690        O  0.09598670  0.15422007  0.64624723    -0.72000
V691        V  0.14990042  0.12588769  0.64559852     1.35200
V692        V  0.11164113  0.12459556  0.62058882     1.35200
C693        C  0.11120670  0.16528331  0.66782305     0.77400
C694        C  0.15020062  0.08450103  0.59935024     0.77500
C695        C  0.14946515  0.16340522  0.59579546     0.77400
C696        C  0.11174439  0.08683718  0.66949060     0.77300
C697        C  0.14374209  0.00898606  0.57988806     0.80200
N698        N  0.13805862  0.03586361  0.58890811    -0.78100
C699        C  0.15769527  0.05654861  0.58596973     0.82600
N700        N  0.18349046  0.05034625  0.57279117    -0.78100
C701        C  0.18922968  0.02318011  0.56303773     0.82700
N702        N  0.16929361  0.00268647  0.56697678    -0.79800
C703        C  0.36650143  0.01002414  0.57236297     0.80200
N704        N  0.34018819  0.00329079  0.56180373    -0.78100
C705        C  0.31995069  0.02352919  0.55920338     0.82600
N706        N  0.32603085  0.05078852  0.56819847    -0.78100
C707        C  0.35256500  0.05741356  0.57918900     0.82700
N708        N  0.37262521  0.03701705  0.58067964    -0.79800
C709        C  0.36574412  0.23719967  0.56267845     0.80200
N710        N  0.37178902  0.21115195  0.57358031    -0.78100
C711        C  0.35165336  0.19068058  0.57407372     0.82600
N712        N  0.32502232  0.19625913  0.56242540    -0.78100
C713        C  0.31911725  0.22263647  0.55085065     0.82700
N714        N  0.33947432  0.24290001  0.55164237    -0.79800
C715        C  0.13924551  0.23332902  0.56032627     0.80200
N716        N  0.16528235  0.23970877  0.54930836    -0.78100
C717        C  0.18705685  0.22123038  0.55192246     0.82600
N718        N  0.18282384  0.19569170  0.56641520    -0.78100
C719        C  0.15638690  0.18928570  0.57784206     0.82700
N720        N  0.13501240  0.20811678  0.57431781    -0.79800
C721        C  0.11706339  0.01211900  0.69052574     0.80200
N722        N  0.12355587  0.03901638  0.68271872    -0.78100
C723        C  0.10402870  0.05990522  0.68449100     0.82600
N724        N  0.07720517  0.05386017  0.69485442    -0.78100
C725        C  0.07061769  0.02674498  0.70329668     0.82700
N726        N  0.09050739  0.00620076  0.70052431    -0.79800
C727        C  0.39221377  0.01246590  0.68331424     0.80200
N728        N  0.41839371  0.00645151  0.69447617    -0.78100
C729        C  0.43842878  0.02679508  0.69790977     0.82600
N730        N  0.43244821  0.05393482  0.68901600    -0.78100
C731        C  0.40606511  0.06009450  0.67725123     0.82700
N732        N  0.38629330  0.03935360  0.67486458    -0.79800
C733        C  0.39232864  0.24145490  0.68303302     0.80200
N734        N  0.41829301  0.24726991  0.69534643    -0.78100
C735        C  0.43803039  0.22661659  0.69869954     0.82600
N736        N  0.43194794  0.19964185  0.68870942    -0.78100
C737        C  0.40586474  0.19381852  0.67592141     0.82700
N738        N  0.38640152  0.21468506  0.67352884    -0.79800
C739        C  0.11608069  0.24055200  0.68775007     0.80200
N740        N  0.08959427  0.24661696  0.69795493    -0.78100
C741        C  0.06995196  0.22594496  0.70138555     0.82600
N742        N  0.07665005  0.19860442  0.69333891    -0.78100
C743        C  0.10339219  0.19246360  0.68277013     0.82700
N744        N  0.12276533  0.21345401  0.68051301    -0.79800
N745        N  0.00463620  0.41687458  0.57371407    -0.36600
N746        N  0.04790859  0.37312974  0.57013193    -0.57200
N747        N  0.00382477  0.33072114  0.56151885    -0.36600
N748        N  0.46057285  0.37408182  0.56954974    -0.57200
C749        C  0.02747775  0.43119813  0.58468479     0.27000
C750        C  0.48148166  0.43176563  0.58240541     0.27000
C751        C  0.02676966  0.31387933  0.56474222     0.27000
C752        C  0.48055419  0.31462329  0.56657464     0.27000
C753        C  0.06461738  0.39634890  0.56960460     0.35600
C754        C  0.06445593  0.35097442  0.56177078     0.35600
C755        C  0.44502127  0.39748363  0.56445139     0.35600
C756        C  0.44433970  0.35205627  0.56013197     0.35600
C757        C  0.01873959  0.45552746  0.60053205    -0.21900
C758        C  0.48961177  0.45591349  0.59902155    -0.21900
C759        C  0.01767875  0.28648315  0.57088786    -0.21900
C760        C  0.48874235  0.28718418  0.57296590    -0.21900
C761        C  0.09196686  0.38890348  0.56105254    -0.23000
C762        C  0.09200833  0.36016727  0.55673818    -0.23000
C763        C  0.41876400  0.39032197  0.55179253    -0.23000
C764        C  0.41828427  0.36140855  0.54920669    -0.23000
C765        C  0.05597476  0.42386605  0.57881011    -0.18300
C766        C  0.45340250  0.42490312  0.57382768    -0.18300
C767        C  0.45208457  0.32354771  0.56344621    -0.18300
C768        C  0.05549919  0.32238212  0.56105312    -0.18300
H769        H  0.03200581  0.47148574  0.61171204     0.14600
H770        H  0.47597932  0.47219224  0.60879294     0.14600
H771        H  0.03010392  0.26747305  0.57324334     0.14600
H772        H  0.47532339  0.26919732  0.57782812     0.14600
H773        H  0.11022559  0.40258748  0.55882112     0.12900
H774        H  0.11047362  0.34763303  0.55099961     0.12900
H775        H  0.40160265  0.40440846  0.54558492     0.12900
H776        H  0.40076113  0.34870050  0.54046566     0.12900
H777        H  0.00485269  0.39902941  0.55912490     0.26100
H778        H  0.00401308  0.35166682  0.55457112     0.26100
N779        N  0.25386972  0.41940967  0.66736349    -0.36600
N780        N  0.29673640  0.37641765  0.66688202    -0.57200
N781        N  0.25368662  0.33261076  0.66538274    -0.36600
N782        N  0.21093139  0.37571549  0.66997387    -0.57200
C783        C  0.27714891  0.43345110  0.67742328     0.27000
C784        C  0.23130791  0.43296722  0.67971819     0.27000
C785        C  0.27697850  0.31858131  0.67500219     0.27000
C786        C  0.23097993  0.31818655  0.67593971     0.27000
C787        C  0.31195277  0.39921883  0.65840163     0.35600
C788        C  0.31200514  0.35365007  0.65804977     0.35600
C789        C  0.19539913  0.39863943  0.66285304     0.35600
C790        C  0.19513554  0.35312808  0.66143739     0.35600
C791        C  0.26941949  0.45606408  0.69664253    -0.21900
C792        C  0.24025850  0.45574346  0.69817774    -0.21900
C793        C  0.26908051  0.29493530  0.69202861    -0.21900
C794        C  0.23985608  0.29467067  0.69260547    -0.21900
C795        C  0.33678570  0.39099855  0.64366414    -0.23000
C796        C  0.33692813  0.36191808  0.64359632    -0.23000
C797        C  0.16986357  0.39069730  0.64927236    -0.23000
C798        C  0.16949631  0.36164397  0.64858396    -0.23000
C799        C  0.30484795  0.42691987  0.66771681    -0.18300
C800        C  0.20304501  0.42618227  0.67226251    -0.18300
C801        C  0.20267574  0.32529431  0.66894242    -0.18300
C802        C  0.30488069  0.32593735  0.66664789    -0.18300
H803        H  0.28339978  0.47117529  0.70807107     0.14600
H804        H  0.22712910  0.47062252  0.71106685     0.14600
H805        H  0.28291930  0.27939222  0.70259033     0.14600
H806        H  0.22667530  0.27892355  0.70375840     0.14600
H807        H  0.35299313  0.40463414  0.63432772     0.12900
H808        H  0.35340455  0.34836929  0.63431008     0.12900
H809        H  0.15339184  0.40455205  0.64103945     0.12900
H810        H  0.15230517  0.34835017  0.64011191     0.12900
H811        H  0.25330363  0.40263968  0.65105850     0.26100
H812        H  0.25329077  0.35013371  0.65058698     0.26100
N813        N  0.20847563  0.12467665  0.79988352    -0.36600
N814        N  0.25140347  0.16743901  0.80231255    -0.57200
N815        N  0.29477947  0.12361886  0.80248683    -0.36600
N816        N  0.25178660  0.08090508  0.79550769    -0.57200
C817        C  0.19334630  0.14830791  0.79441275     0.27000
C818        C  0.19381362  0.10276935  0.78732542     0.27000
C819        C  0.30926745  0.14652971  0.79273527     0.27000
C820        C  0.30964422  0.10057193  0.79333249     0.27000
C821        C  0.22908597  0.18213007  0.81363616     0.35600
C822        C  0.27475429  0.18198368  0.81106874     0.35600
C823        C  0.22823620  0.06570089  0.80101736     0.35600
C824        C  0.27368467  0.06533049  0.80614857     0.35600
C825        C  0.16872220  0.14145526  0.77793787    -0.21900
C826        C  0.16900692  0.11252121  0.77347074    -0.21900
C827        C  0.33350651  0.13788269  0.77673397    -0.21900
C828        C  0.33390036  0.10875668  0.77746098    -0.21900
C829        C  0.23824492  0.20612430  0.82986172    -0.23000
C830        C  0.26734741  0.20601635  0.82825617    -0.23000
C831        C  0.23508656  0.04027214  0.81517074    -0.23000
C832        C  0.26403700  0.04019088  0.81879622    -0.23000
C833        C  0.20073676  0.17531032  0.80625020    -0.18300
C834        C  0.20092341  0.07418169  0.79174974    -0.18300
C835        C  0.30217012  0.07260366  0.80083618    -0.13500
C836        C  0.30222955  0.17473880  0.80091975    -0.18300
H837        H  0.15208671  0.15570440  0.77053386     0.14600
H838        H  0.15253919  0.09998880  0.76214743     0.14600
H839        H  0.34954116  0.15117233  0.76622742     0.14600
H840        H  0.35012506  0.09517770  0.76750788     0.14600
H841        H  0.22532000  0.22221032  0.84113950     0.12900
H842        H  0.28139849  0.22196964  0.83812485     0.12900
H843        H  0.22076140  0.02358003  0.82211207     0.12900
H844        H  0.27658886  0.02329431  0.82872470     0.12900
H845        H  0.22667973  0.12333091  0.81384060     0.26100
H846        H  0.27677170  0.12365001  0.81674926     0.26100
N847        N  0.00134718  0.16864534  0.92928884    -0.36600
N848        N  0.04468899  0.12605277  0.93933246    -0.57200
N849        N  0.00176057  0.08252118  0.93398614    -0.36600
N850        N  0.45851299  0.12510090  0.92763258    -0.57200
C851        C  0.02288525  0.18389753  0.94193102     0.27000
C852        C  0.47725063  0.18333281  0.93448053     0.27000
C853        C  0.02417222  0.06858634  0.94608203     0.27000
C854        C  0.47821417  0.06841512  0.94271996     0.27000
C855        C  0.06062929  0.14893005  0.93283354     0.35600
C856        C  0.06094190  0.10325965  0.93293923     0.35600
C857        C  0.44375275  0.14692757  0.91579344     0.35600
C858        C  0.44368662  0.10159062  0.92027098     0.35600
C859        C  0.01240324  0.20857087  0.95552680    -0.21900
C860        C  0.48346618  0.20817541  0.95089842    -0.21900
C861        C  0.01492361  0.04537285  0.96295704    -0.21900
C862        C  0.48574545  0.04532375  0.96093553    -0.21900
C863        C  0.08717718  0.14073657  0.92220540    -0.23000
C864        C  0.08734629  0.11166965  0.92213838    -0.23000
C865        C  0.41943680  0.13730168  0.90052540    -0.23000
C866        C  0.41940762  0.10838517  0.90335156    -0.23000
C867        C  0.05183100  0.17691213  0.93894038    -0.18300
C868        C  0.45024444  0.17531293  0.92294462    -0.18300
C869        C  0.45052868  0.07482900  0.93225157    -0.18300
C870        C  0.05264334  0.07530424  0.93965827    -0.18300
H871        H  0.02439963  0.22523199  0.96720820     0.14600
H872        H  0.46876214  0.22444794  0.95841822     0.14600
H873        H  0.02787064  0.02992014  0.97499566     0.14600
H874        H  0.47175475  0.02977528  0.97117750     0.14600
H875        H  0.10461746  0.15427245  0.91551254     0.12900
H876        H  0.10498073  0.09833627  0.91532457     0.12900
H877        H  0.40302590  0.14986659  0.88952610     0.12900
H878        H  0.40297445  0.09414746  0.89495039     0.12900
H879        H  0.00322412  0.15008102  0.91576420     0.26100
H880        H  0.00274420  0.09951865  0.91844825     0.26100
C881        C  0.13729418  0.26314018  0.68269149    -0.00200
C882        C  0.15907712  0.25807807  0.66060839    -0.12100
C883        C  0.18015974  0.27817474  0.65529302     0.02100
C884        C  0.17999480  0.30382650  0.67257356    -0.00300
C885        C  0.15799653  0.30926174  0.69408806    -0.12000
C886        C  0.13658190  0.28939973  0.69909032     0.01900
H887        H  0.15954763  0.23843446  0.64708016     0.14900
H888        H  0.15778618  0.32905120  0.70736427     0.14900
C889        C  0.11476507  0.29652973  0.72173967     0.36600
C890        C  0.20139229  0.27220536  0.63156181     0.36500
N891        N  0.09726384  0.30255916  0.73974469    -0.43800
N892        N  0.21841071  0.26737796  0.61256162    -0.43800
C893        C  0.37056298  0.26384974  0.67907071    -0.00200
C894        C  0.34846623  0.25902513  0.65706934    -0.12100
C895        C  0.32724312  0.27909630  0.65227367     0.02100
C896        C  0.32771015  0.30461946  0.66974531    -0.00300
C897        C  0.34957204  0.30961981  0.69171234    -0.12000
C898        C  0.37083383  0.28956155  0.69665192     0.01900
H899        H  0.34785150  0.23962209  0.64311918     0.14900
H900        H  0.34964773  0.32910531  0.70555800     0.14900
C901        C  0.39173751  0.29574625  0.72083182     0.36600
C902        C  0.30529795  0.27312962  0.62915535     0.36500
N903        N  0.40835314  0.30105505  0.74027155    -0.43800
N904        N  0.28754140  0.26835173  0.61084170    -0.43800
C905        C  0.37027034  0.49002768  0.67976842    -0.00200
C906        C  0.34648889  0.49546952  0.66052102    -0.12100
C907        C  0.32541752  0.47508500  0.65569544     0.02100
C908        C  0.32743303  0.44874907  0.67082144    -0.00300
C909        C  0.35089610  0.44326373  0.69026351    -0.12000
C910        C  0.37233840  0.46335089  0.69466370     0.01900
H911        H  0.34457398  0.51548314  0.64840594     0.14900
H912        H  0.35237241  0.42313061  0.70223560     0.14900
C913        C  0.39581688  0.95566635  0.71483535     0.36600
C914        C  0.30247164  0.48140459  0.63422679     0.36500
N915        N  0.41460527  0.94907544  0.73084783    -0.43800
N916        N  0.28418894  0.48663138  0.61691426    -0.43800
C917        C  0.13861419  0.48951707  0.68649612    -0.00200
C918        C  0.16196548  0.49490916  0.66676102    -0.12100
C919        C  0.18255834  0.47434661  0.66111565     0.02100
C920        C  0.18078407  0.44807016  0.67633407    -0.00300
C921        C  0.15773020  0.44258075  0.69621963    -0.12000
C922        C  0.13646662  0.46271066  0.70099924     0.01900
H923        H  0.16374592  0.01493809  0.65461723     0.14900
H924        H  0.15632213  0.42236073  0.70800927     0.14900
C925        C  0.11302003  0.45493644  0.72099421     0.36600
C926        C  0.20440152  0.48013428  0.63821578     0.36500
N927        N  0.09419851  0.44822926  0.73675195    -0.43800
N928        N  0.22177965  0.48466246  0.61967052    -0.43800
C929        C  0.11653806  0.25479764  0.55929973    -0.00200
C930        C  0.11483950  0.27319413  0.53339132    -0.12100
C931        C  0.09435662  0.29463481  0.53271274     0.02100
C932        C  0.07761055  0.29996285  0.55988343    -0.00300
C933        C  0.08054000  0.28246164  0.58624021    -0.12000
C934        C  0.09748844  0.25848934  0.58469914     0.01900
H935        H  0.12873601  0.27011980  0.51320023     0.14900
H936        H  0.06733155  0.28601536  0.60694879     0.14900
C937        C  0.09166273  0.23642802  0.60687730     0.36600
C938        C  0.09064293  0.31052339  0.50393353     0.36500
N939        N  0.08527761  0.21799081  0.62308013    -0.43800
N940        N  0.08525465  0.32057835  0.97872873    -0.43800
C941        C  0.38767049  0.25917677  0.56253610    -0.00200
C942        C  0.38628993  0.28127784  0.58486885    -0.12100
C943        C  0.40755602  0.30188301  0.58626626     0.02100
C944        C  0.42924493  0.30181776  0.56321826    -0.00300
C945        C  0.43003207  0.28006774  0.54033362    -0.12000
C946        C  0.41028295  0.25811408  0.54087893     0.01900
H947        H  0.36921979  0.28182328  0.60194069     0.14900
H948        H  0.44698166  0.27954751  0.52299874     0.14900
C949        C  0.41480039  0.23392293  0.52049301     0.36600
C950        C  0.40776479  0.32174267  0.61256112     0.36500
N951        N  0.41935280  0.21414323  0.50500420    -0.43800
N952        N  0.40842215  0.33744028  0.63382278    -0.43800
C953        C  0.43162912  0.44740639  0.57504329    -0.00200
C954        C  0.43369104  0.46993682  0.55390892    -0.12100
C955        C  0.41280875  0.49079532  0.55318258     0.02100
C956        C  0.38891891  0.48859390  0.57301577    -0.00300
C957        C  0.38692138  0.46613334  0.59431067    -0.12000
C958        C  0.40859040  0.44606821  0.59617335     0.01900
H959        H  0.45161777  0.47112520  0.53791780     0.14900
H960        H  0.36882529  0.46461529  0.60989721     0.14900
C961        C  0.40764218  0.42490343  0.62056900     0.36600
C962        C  0.41619893  0.01403681  0.53159316     0.36500
N963        N  0.40768667  0.40796749  0.64017182    -0.43800
N964        N  0.41915063  0.03278407  0.51453795    -0.43800
C965        C  0.12090184  0.48772689  0.58067298    -0.00200
C966        C  0.12268221  0.46479299  0.60144649    -0.12100
C967        C  0.10055260  0.44504031  0.60303272     0.02100
C968        C  0.07776972  0.44655212  0.58138746    -0.00300
C969        C  0.07571637  0.46979556  0.56121033    -0.12000
C970        C  0.09646890  0.49084660  0.56162486     0.01900
H971        H  0.14084647  0.46270797  0.61692602     0.14900
H972        H  0.05766191  0.47160492  0.54532956     0.14900
C973        C  0.09183560  0.51571813  0.54283390     0.36600
C974        C  0.10055217  0.42412361  0.62771515     0.36500
N975        N  0.08609965  0.03615991  0.02806995    -0.43800
N976        N  0.09951631  0.40738828  0.64750472    -0.43800
C977        C  0.38692534  0.00932787  0.93434781    -0.00200
C978        C  0.38201025  0.03546953  0.94963480    -0.12100
C979        C  0.40239651  0.05689800  0.94963528     0.02100
C980        C  0.42828016  0.05263596  0.93363956    -0.00300
C981        C  0.43345101  0.02661747  0.91865912    -0.12000
C982        C  0.41331473  0.00501359  0.91887625     0.01900
H983        H  0.36230547  0.03921545  0.96215385     0.14900
H984        H  0.45337654  0.02329348  0.90636095     0.14900
C985        C  0.42090088  0.97898737  0.90286381     0.36600
C986        C  0.39657629  0.08264606  0.96718691     0.36500
N987        N  0.42758752  0.45823650  0.89019942    -0.43800
N988        N  0.39132280  0.10487916  0.47905116    -0.43800
C989        C  0.07438274  0.05255622  0.94114278    -0.00200
C990        C  0.09834953  0.05659800  0.96038516    -0.12100
C991        C  0.12001148  0.03650919  0.96138015     0.02100
C992        C  0.11756716  0.01107254  0.94338814    -0.00300
C993        C  0.09301574  0.00676319  0.92483100    -0.12000
C994        C  0.07173411  0.02726084  0.92328127     0.01900
H995        H  0.10027288  0.07581875  0.97454304     0.14900
H996        H  0.09078527  0.48776327  0.91039728     0.14900
C997        C  0.04859959  0.02281055  0.90114312     0.36600
C998        C  0.14423822  0.04305336  0.98117571     0.36500
N999        N  0.03033080  0.01945800  0.88306007    -0.43800
N1000       N  0.16360606  0.04880631  0.99690371    -0.43800
C1001       C  0.07330358  0.19998650  0.94072330    -0.00200
C1002       C  0.07024198  0.22313903  0.92053913    -0.12100
C1003       C  0.08996412  0.24518259  0.92077324     0.02100
C1004       C  0.11441901  0.24356941  0.94032191    -0.00300
C1005       C  0.11701845  0.22064657  0.96113020    -0.12000
C1006       C  0.09646060  0.19935289  0.96200719     0.01900
H1007       H  0.05214863  0.22406078  0.90458950     0.14900
H1008       H  0.13497857  0.21950012  0.97722301     0.14900
C1009       C  0.09927829  0.17750538  0.98546825     0.36600
C1010       C  0.08389245  0.26917232  0.90109643     0.36500
N1011       N  0.10157331  0.16006496  0.00434110    -0.43800
N1012       N  0.07834242  0.28861972  0.88591758    -0.43800
C1013       C  0.38334145  0.23721150  0.92685551    -0.00200
C1014       C  0.40728449  0.24185702  0.90769272    -0.12100
C1015       C  0.42901374  0.22184749  0.90550371     0.02100
C1016       C  0.42698911  0.19646666  0.92250335    -0.00300
C1017       C  0.40276077  0.19126456  0.94063530    -0.12000
C1018       C  0.38107439  0.21118339  0.94307591     0.01900
H1019       H  0.40923964  0.26127501  0.89444809     0.14900
H1020       H  0.40126421  0.17182922  0.95397728     0.14900
C1021       C  0.35776747  0.20445838  0.96382448     0.36600
C1022       C  0.45303333  0.22764253  0.88541227     0.36500
N1023       N  0.33930083  0.19873356  0.98058044    -0.43800
N1024       N  0.47225028  0.23203251  0.86919127    -0.43800
C1025       C  0.32449658  0.05035867  0.80189820    -0.00200
C1026       C  0.34856835  0.05490685  0.82099443    -0.12100
C1027       C  0.36991296  0.03451467  0.82279789     0.02100
C1028       C  0.36648604  0.00832728  0.80690375    -0.00300
C1029       C  0.34266937  0.00378412  0.78757347    -0.12000
C1030       C  0.32221948  0.02491261  0.78410391     0.01900
H1031       H  0.35086306  0.07462747  0.83415530     0.14900
H1032       H  0.34067009  0.48415025  0.77420215     0.14900
C1033       C  0.29972608  0.02056421  0.76123077     0.36600
C1034       C  0.39543493  0.04127573  0.84029201     0.36500
N1035       N  0.28146761  0.01756139  0.74308706    -0.43800
N1036       N  0.41623900  0.04703424  0.85347526    -0.43800
C1037       C  0.17790191  0.05307728  0.79241424    -0.00200
C1038       C  0.15742523  0.05611198  0.81606156    -0.12100
C1039       C  0.13706954  0.03531522  0.82049073     0.02100
C1040       C  0.13785903  0.01030018  0.80208134    -0.00300
C1041       C  0.15781235  0.00750955  0.77764397    -0.12000
C1042       C  0.17748837  0.02909137  0.77222318     0.01900
H1043       H  0.15756994  0.07473746  0.83135713     0.14900
H1044       H  0.15759839  0.98884285  0.76246741     0.14900
C1045       C  0.19639764  0.02677852  0.74545985     0.36600
C1046       C  0.11552508  0.04057387  0.84388274     0.36500
N1047       N  0.21130381  0.02529302  0.72375215    -0.43800
N1048       N  0.09826320  0.04597275  0.86233441    -0.43800
C1049       C  0.17883147  0.19779450  0.80850130    -0.00200
C1050       C  0.18332715  0.22308932  0.79214622    -0.12100
C1051       C  0.16393961  0.24526328  0.79425504     0.02100
C1052       C  0.13893554  0.24185604  0.81197976    -0.00300
C1053       C  0.13411313  0.21650436  0.82800589    -0.12000
C1054       C  0.15404724  0.19466543  0.82687989     0.01900
H1055       H  0.20224968  0.22557983  0.77787832     0.14900
H1056       H  0.11496346  0.21399789  0.84190128     0.14900
C1057       C  0.14887033  0.16964728  0.84532214     0.36600
C1058       C  0.17007252  0.27107291  0.77766973     0.36500
N1059       N  0.14458606  0.14962541  0.86009284    -0.43800
N1060       N  0.17531687  0.29183828  0.76469121    -0.43800
C1061       C  0.36776965  0.23813520  0.80595159    -0.00200
C1062       C  0.34203574  0.24430193  0.79075148    -0.12100
C1063       C  0.32111649  0.22351836  0.78696887     0.02100
C1064       C  0.32483416  0.19677812  0.80111827    -0.00300
C1065       C  0.35067901  0.19074774  0.81613007    -0.12000
C1066       C  0.37259967  0.21048395  0.81699009     0.01900
H1067       H  0.33873327  0.26507647  0.78074936     0.14900
H1068       H  0.35403194  0.17019553  0.82665841     0.14900
C1069       C  0.39993058  0.20106296  0.82805960     0.36600
C1070       C  0.29662667  0.22983580  0.76759824     0.36500
N1071       N  0.42177621  0.19238700  0.83578882    -0.43800
N1072       N  0.27707436  0.23487707  0.75197741    -0.43800
O1073       O  0.34003557  0.84676935  0.38887554    -0.71800
O1074       O  0.36913776  0.90250527  0.33266388    -0.72000
O1075       O  0.36868812  0.84454902  0.33435744    -0.71900
O1076       O  0.34023842  0.90399563  0.38748313    -0.71900
O1077       O  0.38029851  0.90430454  0.41311857    -0.71800
O1078       O  0.40917974  0.84605187  0.35909021    -0.71900
O1079       O  0.40916913  0.90320709  0.35830089    -0.71800
O1080       O  0.38055693  0.84661507  0.41358832    -0.72000
V1081       V  0.35537767  0.87449714  0.36118955     1.35200
V1082       V  0.39392345  0.87507845  0.38567493     1.35200
C1083       C  0.35602102  0.83616615  0.40970570     0.77400
C1084       C  0.39362513  0.91315741  0.33663296     0.77500
C1085       C  0.39328821  0.83444816  0.33854795     0.77400
C1086       C  0.35588905  0.91481055  0.40880082     0.77300
O1087       O  0.09549187  0.90586971  0.35969927    -0.71800
O1088       O  0.12316402  0.84896642  0.41514361    -0.72000
O1089       O  0.12284054  0.90665799  0.41525394    -0.71900
O1090       O  0.09565724  0.84881894  0.35960475    -0.71900
O1091       O  0.13622065  0.84879368  0.33532334    -0.71800
O1092       O  0.16394364  0.90598767  0.39212094    -0.71900
O1093       O  0.16377275  0.84850845  0.39099757    -0.71800
O1094       O  0.13650975  0.90675056  0.33644660    -0.72000
V1095       V  0.11019653  0.87757612  0.38709837     1.35200
V1096       V  0.14928244  0.87752707  0.36403787     1.35200
C1097       C  0.11174192  0.91683002  0.33948828     0.77400
C1098       C  0.14750892  0.83805531  0.41159372     0.77500
C1099       C  0.14744251  0.91698131  0.41233738     0.77400
C1100       C  0.11175222  0.83816494  0.33883208     0.77300
O1101       O  0.03302087  0.74521238  0.29349047    -0.71800
O1102       O  0.47450022  0.71760729  0.23830480    -0.72000
O1103       O  0.03191468  0.71666028  0.23842794    -0.71900
O1104       O  0.47515275  0.74565585  0.29367108    -0.71900
O1105       O  0.47460723  0.78545678  0.26840398    -0.71800
O1106       O  0.03378928  0.75741692  0.21527170    -0.71900
O1107       O  0.47584083  0.75740857  0.21311786    -0.71800
O1108       O  0.03185352  0.78597870  0.27028169    -0.72000
V1109       V  0.00363987  0.73214406  0.26566348     1.35200
V1110       V  0.00402022  0.77071428  0.24210811     1.35200
C1111       C  0.04310447  0.76989337  0.29038963     0.77400
C1112       C  0.46462294  0.73335609  0.21687702     0.77500
C1113       C  0.04360455  0.73265530  0.21861148     0.77400
C1114       C  0.46410588  0.76965796  0.28928574     0.77300
C1115       C  0.38954389  0.76070403  0.30967098     0.80200
N1116       N  0.41675980  0.75551800  0.30181802    -0.78100
C1117       C  0.43660043  0.77613138  0.30367910     0.82600
N1118       N  0.42922726  0.80248587  0.31433129    -0.78100
C1119       C  0.40174376  0.80778467  0.32277440     0.82700
N1120       N  0.38201193  0.78693507  0.31984446    -0.79800
C1121       C  0.11789959  0.76436896  0.31246680     0.80200
N1122       N  0.12451913  0.79117145  0.32124990    -0.78100
C1123       C  0.10415811  0.81133992  0.32289778     0.82600
N1124       N  0.07682560  0.80467586  0.31462819    -0.78100
C1125       C  0.07025561  0.77759228  0.30547319     0.82700
N1126       N  0.09081212  0.75765929  0.30501642    -0.79800
O1127       O  0.47520036  0.99333224  0.20959504    -0.71800
O1128       O  0.03128719  0.96452768  0.26603930    -0.72000
O1129       O  0.47394786  0.96388726  0.26361873    -0.71900
O1130       O  0.03324773  0.99379843  0.21228358    -0.71900
O1131       O  0.03196371  0.53361811  0.23842862    -0.71800
O1132       O  0.47261096  0.50381298  0.28955643    -0.71900
O1133       O  0.03026473  0.50437354  0.29220963    -0.71800
O1134       O  0.47454604  0.53322602  0.23565688    -0.72000
V1135       V  0.00337382  0.97972862  0.23823176     1.35200
V1136       V  0.00232832  0.51788920  0.26356032     1.35200
C1137       C  0.46453744  0.51768316  0.21377042     0.77400
C1138       C  0.04125596  0.98026340  0.28777749     0.77500
C1139       C  0.46254580  0.97928730  0.28468744     0.77400
C1140       C  0.04362898  0.51816252  0.21760706     0.77300
C1141       C  0.11599131  0.98876727  0.30721424     0.80200
N1142       N  0.08876416  0.99406849  0.29966268    -0.78100
C1143       C  0.06865229  0.97393802  0.30257072     0.82600
N1144       N  0.07580882  0.94800695  0.31415812    -0.78100
C1145       C  0.10337904  0.94274628  0.32260709     0.82700
N1146       N  0.12339059  0.96308196  0.31847299    -0.79800
C1147       C  0.38823803  0.98604469  0.30809112     0.80200
N1148       N  0.41497421  0.99177687  0.29893835    -0.78100
C1149       C  0.43525361  0.97159122  0.29930926     0.82600
N1150       N  0.42878262  0.94510420  0.31014899    -0.78100
C1151       C  0.40162160  0.93935559  0.31988797     0.82700
N1152       N  0.38155184  0.95982724  0.31815877    -0.79800
O1153       O  0.22192593  0.74413589  0.46092610    -0.71800
O1154       O  0.28151066  0.71441970  0.01368009    -0.72000
O1155       O  0.22420947  0.71377690  0.01504895    -0.71900
O1156       O  0.27973284  0.74454253  0.45906521    -0.71900
O1157       O  0.28069307  0.78393663  0.48607670    -0.71800
O1158       O  0.22349983  0.75403551  0.04034467    -0.71900
O1159       O  0.28133241  0.75411204  0.04007731    -0.71800
O1160       O  0.22344150  0.78412485  0.48673276    -0.72000
V1161       V  0.25189280  0.73025325  0.48726830     1.35200
V1162       V  0.25232283  0.76785467  0.01273658     1.35200
C1163       C  0.21206800  0.76881199  0.46549421     0.77400
C1164       C  0.29200139  0.72985433  0.03548701     0.77500
C1165       C  0.21354643  0.72928941  0.03642879     0.77400
C1166       C  0.29046694  0.76879680  0.46377157     0.77300
C1167       C  0.36210852  0.76152583  0.43127888     0.80200
N1168       N  0.33616026  0.75603249  0.44317532    -0.78100
C1169       C  0.31652169  0.77662868  0.44679995     0.82600
N1170       N  0.32260034  0.80353864  0.43728722    -0.78100
C1171       C  0.34874557  0.80918455  0.42476364     0.82700
N1172       N  0.36821120  0.78820624  0.42225437    -0.79800
C1173       C  0.13731960  0.76575696  0.44059397     0.80200
N1174       N  0.13288622  0.79205015  0.42936593    -0.78100
C1175       C  0.15420804  0.81119101  0.42766613     0.82600
N1176       N  0.18076355  0.80402727  0.43824011    -0.78100
C1177       C  0.18531785  0.77746648  0.45001039     0.82700
N1178       N  0.16361825  0.75868750  0.45073243    -0.79800
O1179       O  0.41334696  0.65470547  0.14150453    -0.71800
O1180       O  0.38349814  0.59581198  0.08874232    -0.72000
O1181       O  0.38299697  0.65357270  0.08771423    -0.71900
O1182       O  0.41366580  0.59746224  0.14225506    -0.71900
O1183       O  0.37412797  0.59739149  0.16855863    -0.71800
O1184       O  0.34346050  0.65381778  0.11399190    -0.71900
O1185       O  0.34391614  0.59633673  0.11497183    -0.71800
O1186       O  0.37383703  0.65530346  0.16786990    -0.72000
V1187       V  0.39750718  0.62544101  0.11545288     1.35200
V1188       V  0.35967201  0.62574997  0.14099065     1.35200
C1189       C  0.39812328  0.66580123  0.16283887     0.77400
C1190       C  0.35939525  0.58503218  0.09396837     0.77500
C1191       C  0.35860867  0.66407940  0.09224744     0.77400
C1192       C  0.39836390  0.58671109  0.16348764     0.77300
O1193       O  0.22517634  0.53212658  0.02377379    -0.71800
O1194       O  0.28157967  0.50700196  0.46564687    -0.72000
O1195       O  0.22372888  0.50733205  0.46716358    -0.71900
O1196       O  0.28254319  0.53220211  0.02260376    -0.71900
O1197       O  0.28337739  0.99090019  0.04460290    -0.71800
O1198       O  0.22447026  0.96575062  0.48854012    -0.71900
O1199       O  0.28170692  0.96557716  0.48733516    -0.71800
O1200       O  0.22524951  0.99083692  0.04575257    -0.72000
V1201       V  0.25326089  0.51903403  0.49525170     1.35200
V1202       V  0.25380061  0.97872937  0.01653910     1.35200
C1203       C  0.21476619  0.51544641  0.04392253     0.77400
C1204       C  0.29187273  0.98226696  0.46713287     0.77500
C1205       C  0.21342435  0.98269323  0.46912576     0.77400
C1206       C  0.29361837  0.51559727  0.04232124     0.77300
C1207       C  0.13989618  0.99005515  0.44161843     0.80200
N1208       N  0.13428252  0.96388032  0.42982744    -0.78100
C1209       C  0.15460150  0.94362312  0.42881344     0.82600
N1210       N  0.18109151  0.94940471  0.44044343    -0.78100
C1211       C  0.18681287  0.97573344  0.45254046     0.82700
N1212       N  0.16630969  0.99577797  0.45257551    -0.79800
C1213       C  0.36354976  0.98892179  0.43355618     0.80200
N1214       N  0.33788191  0.99491523  0.44633890    -0.78100
C1215       C  0.31753695  0.97475331  0.44878130     0.82600
N1216       N  0.32278369  0.94793057  0.43751270    -0.78100
C1217       C  0.34863207  0.94194432  0.42430409     0.82700
N1218       N  0.36860443  0.96238621  0.42296146    -0.79800
O1219       O  0.13640752  0.65422978  0.17298064    -0.71800
O1220       O  0.16589674  0.59621143  0.11883429    -0.72000
O1221       O  0.16506269  0.65381417  0.11772439    -0.71900
O1222       O  0.13704396  0.59655170  0.17338188    -0.71900
O1223       O  0.09647486  0.59660323  0.14878245    -0.71800
O1224       O  0.12495662  0.65202543  0.09229981    -0.71900
O1225       O  0.12528595  0.59427109  0.09440124    -0.71800
O1226       O  0.09633297  0.65353183  0.14738502    -0.72000
V1227       V  0.15028200  0.62524881  0.14536572     1.35200
V1228       V  0.11167428  0.62419349  0.12104101     1.35200
C1229       C  0.11179883  0.66430457  0.16892354     0.77400
C1230       C  0.14989173  0.58417563  0.09871008     0.77500
C1231       C  0.14920737  0.66320458  0.09590411     0.77400
C1232       C  0.11240325  0.58613192  0.16967608     0.77300
C1233       C  0.14311923  0.50881164  0.07821774     0.80200
N1234       N  0.13744444  0.53568351  0.08734281    -0.78100
C1235       C  0.15722397  0.55631004  0.08485674     0.82600
N1236       N  0.18315615  0.55003731  0.07203664    -0.78100
C1237       C  0.18888706  0.52290045  0.06216522     0.82700
N1238       N  0.16881821  0.50247008  0.06569330    -0.79800
C1239       C  0.36680921  0.51023404  0.07180889     0.80200
N1240       N  0.34053015  0.50334487  0.06125998    -0.78100
C1241       C  0.32001105  0.52335176  0.05917720     0.82600
N1242       N  0.32573378  0.55053156  0.06878520    -0.78100
C1243       C  0.35220613  0.55730523  0.07986540     0.82700
N1244       N  0.37256903  0.53715098  0.08078148    -0.79800
C1245       C  0.36512607  0.73701660  0.06460028     0.80200
N1246       N  0.37096349  0.71107672  0.07589729    -0.78100
C1247       C  0.35082416  0.69061714  0.07617856     0.82600
N1248       N  0.32438593  0.69608613  0.06390675    -0.78100
C1249       C  0.31869351  0.72238715  0.05195418     0.82700
N1250       N  0.33906430  0.74263283  0.05293107    -0.79800
C1251       C  0.13898879  0.73307075  0.05999718     0.80200
N1252       N  0.16509911  0.73955531  0.04928427    -0.78100
C1253       C  0.18691589  0.72116785  0.05217475     0.82600
N1254       N  0.18262479  0.69561741  0.06665751    -0.78100
C1255       C  0.15610783  0.68909392  0.07781520     0.82700
N1256       N  0.13468530  0.70784040  0.07397411    -0.79800
C1257       C  0.11757470  0.51149806  0.19100308     0.80200
N1258       N  0.12420050  0.53840246  0.18335672    -0.78100
C1259       C  0.10467143  0.55929993  0.18490809     0.82600
N1260       N  0.07773158  0.55324365  0.19491067    -0.78100
C1261       C  0.07102003  0.52612488  0.20323113     0.82700
N1262       N  0.09091319  0.50556692  0.20065299    -0.79800
C1263       C  0.39212842  0.51141554  0.18214901     0.80200
N1264       N  0.41841097  0.50523639  0.19299538    -0.78100
C1265       C  0.43838094  0.52562833  0.19682216     0.82600
N1266       N  0.43220863  0.55290030  0.18870884    -0.78100
C1267       C  0.40576859  0.55920270  0.17730968     0.82700
N1268       N  0.38606323  0.53845274  0.17446131    -0.79800
C1269       C  0.39301786  0.74117090  0.18305740     0.80200
N1270       N  0.41898532  0.74683300  0.19543442    -0.78100
C1271       C  0.43838506  0.72597502  0.19948356     0.82600
N1272       N  0.43196233  0.69890565  0.19009774    -0.78100
C1273       C  0.40585796  0.69321748  0.17725568     0.82700
N1274       N  0.38674446  0.71431684  0.17418116    -0.79800
C1275       C  0.11711523  0.73892296  0.19137010     0.80200
N1276       N  0.09048676  0.74509935  0.20095307    -0.78100
C1277       C  0.07054433  0.72460539  0.20340015     0.82600
N1278       N  0.07706763  0.69733245  0.19480428    -0.78100
C1279       C  0.10399303  0.69108205  0.18483489     0.82700
N1280       N  0.12365780  0.71187557  0.18375770    -0.79800
N1281       N  0.00430149  0.91627093  0.07318066    -0.36600
N1282       N  0.04749839  0.87257880  0.06862137    -0.57200
N1283       N  0.00337838  0.83014739  0.06137404    -0.36600
N1284       N  0.46023627  0.87355041  0.07031406    -0.57200
C1285       C  0.02730420  0.93038087  0.08404025     0.27000
C1286       C  0.48130900  0.93100386  0.08272901     0.27000
C1287       C  0.02639498  0.81337849  0.06434603     0.27000
C1288       C  0.48026432  0.81411580  0.06732133     0.27000
C1289       C  0.06411508  0.89582840  0.06747705     0.35600
C1290       C  0.06387379  0.85044655  0.05978846     0.35600
C1291       C  0.44463661  0.89693030  0.06520301     0.35600
C1292       C  0.44392356  0.85146265  0.06127206     0.35600
C1293       C  0.01883940  0.95433568  0.10077781    -0.21900
C1294       C  0.48968493  0.95476806  0.09988012    -0.21900
C1295       C  0.01749741  0.78607363  0.07124563    -0.21900
C1296       C  0.48861001  0.78677415  0.07400426    -0.21900
C1297       C  0.09123888  0.88844195  0.05801371    -0.23000
C1298       C  0.09124044  0.85968368  0.05375251    -0.23000
C1299       C  0.41827492  0.88968486  0.05288287    -0.23000
C1300       C  0.41775727  0.86074607  0.05060322    -0.23000
C1301       C  0.05565692  0.92325920  0.07718215    -0.18300
C1302       C  0.45315529  0.92439793  0.07430105    -0.18300
C1303       C  0.45175440  0.82297681  0.06464552    -0.18300
C1304       C  0.05500428  0.82184569  0.05975917    -0.18300
H1305       H  0.03229803  0.97004380  0.11211561     0.14600
H1306       H  0.47619436  0.97081923  0.11035722     0.14600
H1307       H  0.03005967  0.76716005  0.07372756     0.14600
H1308       H  0.47529241  0.76885618  0.07947439     0.14600
H1309       H  0.10939088  0.90217879  0.05522132     0.12900
H1310       H  0.10955995  0.84715357  0.04743112     0.12900
H1311       H  0.40106331  0.90372320  0.04671927     0.12900
H1312       H  0.40015391  0.84798110  0.04218200     0.12900
H1313       H  0.00427602  0.89872594  0.05802729     0.26100
H1314       H  0.00338006  0.85104470  0.05402051     0.26100
N1315       N  0.25354975  0.91852997  0.16618040    -0.36600
N1316       N  0.29669326  0.87572572  0.16669125    -0.57200
N1317       N  0.25391981  0.83168451  0.16675413    -0.36600
N1318       N  0.21087324  0.87462112  0.17074279    -0.57200
C1319       C  0.27678394  0.93308630  0.17540004     0.27000
C1320       C  0.23097295  0.93239617  0.17802471     0.27000
C1321       C  0.27740585  0.81782905  0.17609922     0.27000
C1322       C  0.23141929  0.81722866  0.17776366     0.27000
C1323       C  0.31157377  0.89843747  0.15725058     0.35600
C1324       C  0.31196123  0.85290383  0.15800745     0.35600
C1325       C  0.19519475  0.89726852  0.16290728     0.35600
C1326       C  0.19520225  0.85173809  0.16291375     0.35600
C1327       C  0.26899226  0.95642389  0.19348353    -0.21900
C1328       C  0.23986509  0.95596052  0.19522800    -0.21900
C1329       C  0.26984768  0.79422808  0.19338973    -0.21900
C1330       C  0.24063501  0.79385381  0.19447418    -0.21900
C1331       C  0.33615687  0.89009939  0.14211195    -0.23000
C1332       C  0.33653403  0.86104808  0.14274399    -0.23000
C1333       C  0.16970048  0.88885005  0.14964859    -0.23000
C1334       C  0.16949944  0.85979847  0.14983657    -0.23000
C1335       C  0.30448637  0.92628916  0.16594822    -0.18300
C1336       C  0.20271399  0.92512202  0.17120757    -0.18300
C1337       C  0.20299974  0.82408149  0.17098235    -0.18300
C1338       C  0.30515214  0.82528005  0.16721082    -0.18300
H1339       H  0.28286367  0.97217183  0.20397929     0.14600
H1340       H  0.22671711  0.97130615  0.20738040     0.14600
H1341       H  0.28389691  0.77877534  0.20376958     0.14600
H1342       H  0.22768700  0.77807701  0.20590885     0.14600
H1343       H  0.35194999  0.90367147  0.13186514     0.12900
H1344       H  0.35289630  0.84744619  0.13327283     0.12900
H1345       H  0.15323550  0.90243192  0.14090378     0.12900
H1346       H  0.15241943  0.84621426  0.14167501     0.12900
H1347       H  0.25299789  0.90111916  0.15075318     0.26100
H1348       H  0.25325037  0.84908249  0.15179107     0.26100
N1349       N  0.20879245  0.62505128  0.29929633    -0.36600
N1350       N  0.25217492  0.66749890  0.30129642    -0.57200
N1351       N  0.29507564  0.62330068  0.30276884    -0.36600
N1352       N  0.25158736  0.58086303  0.29632698    -0.57200
C1353       C  0.19399572  0.64872898  0.29305389     0.27000
C1354       C  0.19389995  0.60305211  0.28731391     0.27000
C1355       C  0.30990213  0.64599381  0.29298817     0.27000
C1356       C  0.30967859  0.60004800  0.29379588     0.27000
C1357       C  0.22985848  0.68243239  0.31220660     0.35600
C1358       C  0.27554008  0.68174474  0.31062507     0.35600
C1359       C  0.22790894  0.56590857  0.30203444     0.35600
C1360       C  0.27338845  0.56518743  0.30701950     0.35600
C1361       C  0.16937114  0.64181711  0.27660857    -0.21900
C1362       C  0.16929357  0.61279195  0.27300383    -0.21900
C1363       C  0.33410348  0.63701888  0.27717193    -0.21900
C1364       C  0.33409021  0.60789490  0.27797064    -0.21900
C1365       C  0.23902366  0.70626520  0.32872060    -0.23000
C1366       C  0.26813964  0.70579419  0.32777534    -0.23000
C1367       C  0.23458319  0.54053023  0.31640938    -0.23000
C1368       C  0.26355763  0.54021182  0.31990330    -0.23000
C1369       C  0.20154658  0.67582988  0.30445969    -0.18300
C1370       C  0.20066544  0.57450080  0.29257453    -0.18300
C1371       C  0.30192316  0.57220238  0.30153548    -0.13500
C1372       C  0.30306846  0.67429333  0.30089315    -0.18300
H1373       H  0.15293363  0.65609743  0.26874574     0.14600
H1374       H  0.15271068  0.60021822  0.26195663     0.14600
H1375       H  0.35034307  0.65007991  0.26669781     0.14600
H1376       H  0.35018536  0.59409424  0.26813602     0.14600
H1377       H  0.22610908  0.72243849  0.33984953     0.12900
H1378       H  0.28222088  0.72153272  0.33802545     0.12900
H1379       H  0.22013551  0.52399878  0.32351269     0.12900
H1380       H  0.27599911  0.52326429  0.32989575     0.12900
H1381       H  0.22688749  0.62380057  0.31344505     0.26100
H1382       H  0.27700512  0.62361744  0.31693436     0.26100
N1383       N  0.00123699  0.66966092  0.42947329    -0.36600
N1384       N  0.04441831  0.62683269  0.43876645    -0.57200
N1385       N  0.00138682  0.58348311  0.43236838    -0.36600
N1386       N  0.45831466  0.62633808  0.42669739    -0.57200
C1387       C  0.02275506  0.68459914  0.44262966     0.27000
C1388       C  0.47716530  0.68430273  0.43496845     0.27000
C1389       C  0.02371210  0.56931963  0.44435646     0.27000
C1390       C  0.47775124  0.56939169  0.44084986     0.27000
C1391       C  0.06043785  0.64976835  0.43275015     0.35600
C1392       C  0.06061401  0.60408708  0.43199173     0.35600
C1393       C  0.44367859  0.64838478  0.41519970     0.35600
C1394       C  0.44347052  0.60298970  0.41877242     0.35600
C1395       C  0.01227776  0.70898095  0.45688464    -0.21900
C1396       C  0.48337729  0.70875683  0.45211529    -0.21900
C1397       C  0.01431844  0.54596848  0.46088495    -0.21900
C1398       C  0.48514852  0.54608626  0.45878818    -0.21900
C1399       C  0.08697367  0.64165484  0.42199555    -0.23000
C1400       C  0.08707164  0.61257908  0.42143849    -0.23000
C1401       C  0.41942498  0.63906625  0.39956723    -0.23000
C1402       C  0.41931965  0.61010097  0.40179140    -0.23000
C1403       C  0.05169179  0.67767196  0.43943706    -0.18300
C1404       C  0.45020898  0.67661463  0.42303214    -0.18300
C1405       C  0.45010153  0.57607801  0.43043816    -0.18300
C1406       C  0.05223446  0.57606417  0.43822575    -0.18300
H1407       H  0.02427327  0.72536529  0.46905904     0.14600
H1408       H  0.46869275  0.72490949  0.46000256     0.14600
H1409       H  0.02716920  0.53035282  0.47278589     0.14600
H1410       H  0.47106329  0.53052224  0.46884363     0.14600
H1411       H  0.10446588  0.65523665  0.41557855     0.12900
H1412       H  0.10468929  0.59927932  0.41448188     0.12900
H1413       H  0.40308939  0.65184580  0.38874559     0.12900
H1414       H  0.40290755  0.59602184  0.39299072     0.12900
H1415       H  0.00312488  0.65145694  0.41544347     0.26100
H1416       H  0.00248321  0.60062493  0.41713288     0.26100
C1417       C  0.13835591  0.76147146  0.18630886    -0.00200
C1418       C  0.16043052  0.75608030  0.16469783    -0.12100
C1419       C  0.18118174  0.77632960  0.15874048     0.02100
C1420       C  0.18052683  0.80245859  0.17507958    -0.00300
C1421       C  0.15824486  0.80820215  0.19613703    -0.12000
C1422       C  0.13705864  0.78820780  0.20162967     0.01900
H1423       H  0.16130765  0.73610255  0.15184401     0.14900
H1424       H  0.15759833  0.82837047  0.20863962     0.14900
C1425       C  0.11472900  0.79583974  0.22342656     0.36600
C1426       C  0.20246700  0.76999612  0.13517472     0.36500
N1427       N  0.09677495  0.80232972  0.24065342    -0.43800
N1428       N  0.21944654  0.76476568  0.11625739    -0.43800
C1429       C  0.37143433  0.76370030  0.17881524    -0.00200
C1430       C  0.34885489  0.75848341  0.15754069    -0.12100
C1431       C  0.32753035  0.77846200  0.15285625     0.02100
C1432       C  0.32817292  0.80413348  0.17002200    -0.00300
C1433       C  0.35061266  0.80961586  0.19110983    -0.12000
C1434       C  0.37219832  0.78981728  0.19562521     0.01900
H1435       H  0.34798575  0.73887886  0.14397159     0.14900
H1436       H  0.35097893  0.82934488  0.20450205     0.14900
C1437       C  0.39406606  0.79679336  0.21846315     0.36600
C1438       C  0.30548799  0.77239635  0.12988175     0.36500
N1439       N  0.41150000  0.80270835  0.23676812    -0.43800
N1440       N  0.28774773  0.76760493  0.11155207    -0.43800
C1441       C  0.37016040  0.98905703  0.17824268    -0.00200
C1442       C  0.34667814  0.99449635  0.15851223    -0.12100
C1443       C  0.32551517  0.97420524  0.15356329     0.02100
C1444       C  0.32721516  0.94797050  0.16894594    -0.00300
C1445       C  0.35038356  0.94250911  0.18883300    -0.12000
C1446       C  0.37182032  0.96254319  0.19349687     0.01900
H1447       H  0.34504405  0.01444917  0.14622455     0.14900
H1448       H  0.35154485  0.92249817  0.20109970     0.14900
C1449       C  0.39471774  0.45512691  0.21458928     0.36600
C1450       C  0.30260949  0.98057523  0.13204571     0.36500
N1451       N  0.41301337  0.44876620  0.23140921    -0.43800
N1452       N  0.28416968  0.98573772  0.11491343    -0.43800
C1453       C  0.13887882  0.98877869  0.18647817    -0.00200
C1454       C  0.16150841  0.99374575  0.16559879    -0.12100
C1455       C  0.18176872  0.97297331  0.15942328     0.02100
C1456       C  0.18032081  0.94689043  0.17510933    -0.00300
C1457       C  0.15789364  0.94178333  0.19598169    -0.12000
C1458       C  0.13704267  0.96218993  0.20147671     0.01900
H1459       H  0.16301360  0.51363625  0.15314308     0.14900
H1460       H  0.15679745  0.92175692  0.20821511     0.14900
C1461       C  0.11442047  0.95500443  0.22285856     0.36600
C1462       C  0.20318934  0.97847044  0.13592942     0.36500
N1463       N  0.09625941  0.94871259  0.23974506    -0.43800
N1464       N  0.22038729  0.98271753  0.11708732    -0.43800
C1465       C  0.11627467  0.75450147  0.05879136    -0.00200
C1466       C  0.11385645  0.77202977  0.03219696    -0.12100
C1467       C  0.09330393  0.79341318  0.03131581     0.02100
C1468       C  0.07714124  0.79947236  0.05873846    -0.00300
C1469       C  0.08074977  0.78282311  0.08567974    -0.12000
C1470       C  0.09799281  0.75904784  0.08470816     0.01900
H1471       H  0.12728321  0.76835195  0.01173162     0.14900
H1472       H  0.06800546  0.78697756  0.10662128     0.14900
C1473       C  0.09366486  0.73812572  0.10859976     0.36600
C1474       C  0.08889239  0.80848880  0.00210284     0.36500
N1475       N  0.08856809  0.72047222  0.12636566    -0.43800
N1476       N  0.08764149  0.82327841  0.48090864    -0.43800
C1477       C  0.38717937  0.75883410  0.06434407    -0.00200
C1478       C  0.38607289  0.78090800  0.08671065    -0.12100
C1479       C  0.40746748  0.80136003  0.08801037     0.02100
C1480       C  0.42899136  0.80120209  0.06478379    -0.00300
C1481       C  0.42956192  0.77943529  0.04189908    -0.12000
C1482       C  0.40964071  0.75763906  0.04250378     0.01900
H1483       H  0.36904461  0.78163441  0.10378607     0.14900
H1484       H  0.44637407  0.77886168  0.02439985     0.14900
C1485       C  0.41365079  0.73358343  0.02175856     0.36600
C1486       C  0.40790124  0.82120307  0.11432236     0.36500
N1487       N  0.41771131  0.71393616  0.00587742    -0.43800
N1488       N  0.40866510  0.83686345  0.13561595    -0.43800
C1489       C  0.43160866  0.94718070  0.07533612    -0.00200
C1490       C  0.43454261  0.97022520  0.05499373    -0.12100
C1491       C  0.41390502  0.99135922  0.05411678     0.02100
C1492       C  0.38928279  0.98881833  0.07275874    -0.00300
C1493       C  0.38647266  0.96587869  0.09328068    -0.12000
C1494       C  0.40799458  0.94571928  0.09561936     0.01900
H1495       H  0.45297626  0.97162565  0.03976536     0.14900
H1496       H  0.36783721  0.96405939  0.10797635     0.14900
C1497       C  0.40636228  0.92439622  0.11978426     0.36600
C1498       C  0.41833062  0.51520881  0.03364139     0.36500
N1499       N  0.40595252  0.90734338  0.13924961    -0.43800
N1500       N  0.42218876  0.53442661  0.01748850    -0.43800
C1501       C  0.12032693  0.98744275  0.07897213    -0.00200
C1502       C  0.12254264  0.96414771  0.09920672    -0.12100
C1503       C  0.10057803  0.94419917  0.10072410     0.02100
C1504       C  0.07745039  0.94596095  0.07959374    -0.00300
C1505       C  0.07494425  0.96954170  0.05997660    -0.12000
C1506       C  0.09560783  0.99069893  0.06040793     0.01900
H1507       H  0.14092142  0.96193198  0.11434521     0.14900
H1508       H  0.05662118  0.97151718  0.04451450     0.14900
C1509       C  0.09063569  0.01576732  0.04206410     0.36600
C1510       C  0.10099206  0.92281740  0.12489201     0.36500
N1511       N  0.08754355  0.53597050  0.52849298    -0.43800
N1512       N  0.10002798  0.90563966  0.14420021    -0.43800
C1513       C  0.38600717  0.51100162  0.43206254    -0.00200
C1514       C  0.38115520  0.53718873  0.44727723    -0.12100
C1515       C  0.40169501  0.55848902  0.44743770     0.02100
C1516       C  0.42764592  0.55407046  0.43160549    -0.00300
C1517       C  0.43265661  0.52808729  0.41650656    -0.12000
C1518       C  0.41237878  0.50662078  0.41656871     0.01900
H1519       H  0.36143674  0.54101913  0.45973676     0.14900
H1520       H  0.45259195  0.52466832  0.40425835     0.14900
C1521       C  0.41985049  0.48063346  0.40042557     0.36600
C1522       C  0.39597928  0.58423439  0.46504391     0.36500
N1523       N  0.42649687  0.95989921  0.38767984    -0.43800
N1524       N  0.39183810  0.60327053  0.98121877    -0.43800
C1525       C  0.07400008  0.55334178  0.43971957    -0.00200
C1526       C  0.09758675  0.55714819  0.45961113    -0.12100
C1527       C  0.11927907  0.53709347  0.46074124     0.02100
C1528       C  0.11738672  0.51207764  0.44196931    -0.00300
C1529       C  0.09325564  0.50801856  0.42265533    -0.12000
C1530       C  0.07176420  0.52832268  0.42129768     0.01900
H1531       H  0.09912519  0.57610013  0.47427847     0.14900
H1532       H  0.09139015  0.98923557  0.40780025     0.14900
C1533       C  0.04863031  0.52381577  0.39916869     0.36600
C1534       C  0.14280719  0.54300889  0.48180333     0.36500
N1535       N  0.03032474  0.52039555  0.38114605    -0.43800
N1536       N  0.16156730  0.54814136  0.49868150    -0.43800
C1537       C  0.07311548  0.70078811  0.44148582    -0.00200
C1538       C  0.06975107  0.72428900  0.42185758    -0.12100
C1539       C  0.08939580  0.74640048  0.42226608     0.02100
C1540       C  0.11401138  0.74459633  0.44154345    -0.00300
C1541       C  0.11687017  0.72136884  0.46188744    -0.12000
C1542       C  0.09648168  0.69990037  0.46246960     0.01900
H1543       H  0.05152868  0.72538003  0.40610891     0.14900
H1544       H  0.13498567  0.72003354  0.47773885     0.14900
C1545       C  0.09980708  0.67751722  0.48520373     0.36600
C1546       C  0.08320139  0.77053123  0.40282415     0.36500
N1547       N  0.10257817  0.65961209  0.50344007    -0.43800
N1548       N  0.07761791  0.79002970  0.38773138    -0.43800
C1549       C  0.38365141  0.73876794  0.42805565    -0.00200
C1550       C  0.40777942  0.74372370  0.40928603    -0.12100
C1551       C  0.42938468  0.72363055  0.40669950     0.02100
C1552       C  0.42705480  0.69786451  0.42290674    -0.00300
C1553       C  0.40265794  0.69238647  0.44064373    -0.12000
C1554       C  0.38112348  0.71241185  0.44353820     0.01900
H1555       H  0.40995627  0.76341940  0.39660854     0.14900
H1556       H  0.40094679  0.67266434  0.45341681     0.14900
C1557       C  0.35770295  0.70541677  0.46399742     0.36600
C1558       C  0.45357365  0.72972227  0.38697558     0.36500
N1559       N  0.33913989  0.69945636  0.48050796    -0.43800
N1560       N  0.47294910  0.73435273  0.37107925    -0.43800
C1561       C  0.32410571  0.54984440  0.30265198    -0.00200
C1562       C  0.34848483  0.55457585  0.32121389    -0.12100
C1563       C  0.37010055  0.53444495  0.32236073     0.02100
C1564       C  0.36651293  0.50818920  0.30666867    -0.00300
C1565       C  0.34231985  0.50339977  0.28802437    -0.12000
C1566       C  0.32168722  0.52437417  0.28493888     0.01900
H1567       H  0.35091958  0.57436059  0.33422203     0.14900
H1568       H  0.34018912  0.98370099  0.27480891     0.14900
C1569       C  0.29901622  0.51988903  0.26231604     0.36600
C1570       C  0.39611244  0.54169945  0.33866102     0.36500
N1571       N  0.28071947  0.51665009  0.24426670    -0.43800
N1572       N  0.41727960  0.54798965  0.35077132    -0.43800
C1573       C  0.17748156  0.55354655  0.29318101    -0.00200
C1574       C  0.15637165  0.55716094  0.31603424    -0.12100
C1575       C  0.13572303  0.53657844  0.32021210     0.02100
C1576       C  0.13714361  0.51102377  0.30278926    -0.00300
C1577       C  0.15765206  0.50773636  0.27901874    -0.12000
C1578       C  0.17732079  0.52927254  0.27344798     0.01900
H1579       H  0.15611779  0.57615267  0.33073813     0.14900
H1580       H  0.15776543  0.48877649  0.26430740     0.14900
C1581       C  0.19625554  0.52677435  0.24673310     0.36600
C1582       C  0.11305331  0.54280002  0.34193340     0.36500
N1583       N  0.21107490  0.52520591  0.22495895    -0.43800
N1584       N  0.09482811  0.54910656  0.35880745    -0.43800
C1585       C  0.17968610  0.69835147  0.30683475    -0.00200
C1586       C  0.18429246  0.72388887  0.29097064    -0.12100
C1587       C  0.16496798  0.74611580  0.29350840     0.02100
C1588       C  0.13981880  0.74242596  0.31092762    -0.00300
C1589       C  0.13496592  0.71686706  0.32651491    -0.12000
C1590       C  0.15492230  0.69508109  0.32520009     0.01900
H1591       H  0.20330386  0.72657324  0.27689718     0.14900
H1592       H  0.11579916  0.71418546  0.34033660     0.14900
C1593       C  0.14988668  0.67003961  0.34365508     0.36600
C1594       C  0.17146186  0.77234979  0.27795938     0.36500
N1595       N  0.14577038  0.65001776  0.35848456    -0.43800
N1596       N  0.17707073  0.79347669  0.26592460    -0.43800
C1597       C  0.36822685  0.73808227  0.30634645    -0.00200
C1598       C  0.34258244  0.74401409  0.29087163    -0.12100
C1599       C  0.32188793  0.72305049  0.28685654     0.02100
C1600       C  0.32572743  0.69630169  0.30096403    -0.00300
C1601       C  0.35156637  0.69042969  0.31609562    -0.12000
C1602       C  0.37325097  0.71045040  0.31737065     0.01900
H1603       H  0.33916095  0.76477568  0.28088596     0.14900
H1604       H  0.35502629  0.66988859  0.32660426     0.14900
C1605       C  0.40051758  0.70147467  0.32912280     0.36600
C1606       C  0.29739870  0.72925297  0.26743372     0.36500
N1607       N  0.42236969  0.69328617  0.33748796    -0.43800
N1608       N  0.27778393  0.73416559  0.25185861    -0.43800
O1609       O  0.34024669  0.84587054  0.88822241    -0.71800
O1610       O  0.36931302  0.90259963  0.83316432    -0.72000
O1611       O  0.36888583  0.84456505  0.83372203    -0.71900
O1612       O  0.34046264  0.90315745  0.88800453    -0.71900
O1613       O  0.38057642  0.90310761  0.91353561    -0.71800
O1614       O  0.40934413  0.84563388  0.85855808    -0.71900
O1615       O  0.40939627  0.90285564  0.85868578    -0.71800
O1616       O  0.38073177  0.84538271  0.91298826    -0.72000
V1617       V  0.35558349  0.87408809  0.86111736     1.35200
V1618       V  0.39413718  0.87428881  0.88558714     1.35200
C1619       C  0.35619535  0.83496467  0.90889430     0.77400
C1620       C  0.39380969  0.91320152  0.83727091     0.77500
C1621       C  0.39341302  0.83429442  0.83789230     0.77400
C1622       C  0.35617912  0.91368739  0.90943766     0.77300
O1623       O  0.09563136  0.90573695  0.85992921    -0.71800
O1624       O  0.12325439  0.84814665  0.91463328    -0.72000
O1625       O  0.12311523  0.90585449  0.91541628    -0.71900
O1626       O  0.09551960  0.84868079  0.85922567    -0.71900
O1627       O  0.13612033  0.84843211  0.83501925    -0.71800
O1628       O  0.16404226  0.90548809  0.89188873    -0.71900
O1629       O  0.16389864  0.84799548  0.89056893    -0.71800
O1630       O  0.13647907  0.90635337  0.83629425    -0.72000
V1631       V  0.11028835  0.87710321  0.88697319     1.35200
V1632       V  0.14930526  0.87708817  0.86376582     1.35200
C1633       C  0.11180626  0.91659503  0.83955826     0.77400
C1634       C  0.14764628  0.83732548  0.91103194     0.77500
C1635       C  0.14765709  0.91626798  0.91237377     0.77400
C1636       C  0.11156630  0.83797480  0.83844934     0.77300
O1637       O  0.03273310  0.74525476  0.79259610    -0.71800
O1638       O  0.47448371  0.71796003  0.73696328    -0.72000
O1639       O  0.03188643  0.71750525  0.73702017    -0.71900
O1640       O  0.47489416  0.74522824  0.79276734    -0.71900
O1641       O  0.47432376  0.78549124  0.76841768    -0.71800
O1642       O  0.03322019  0.75849341  0.71432369    -0.71900
O1643       O  0.47525405  0.75822834  0.71268075    -0.71800
O1644       O  0.03152975  0.78624174  0.76986738    -0.72000
V1645       V  0.00350115  0.73234904  0.76453393     1.35200
V1646       V  0.00358769  0.77125406  0.74164949     1.35200
C1647       C  0.04276252  0.76998583  0.78981183     0.77400
C1648       C  0.46430009  0.73399874  0.71600046     0.77500
C1649       C  0.04326084  0.73378547  0.71726136     0.77400
C1650       C  0.46385926  0.76931067  0.78893790     0.77300
C1651       C  0.38926032  0.76059359  0.80919208     0.80200
N1652       N  0.41650896  0.75517849  0.80161266    -0.78100
C1653       C  0.43646640  0.77568597  0.80356195     0.82600
N1654       N  0.42918060  0.80211089  0.81399870    -0.78100
C1655       C  0.40169279  0.80763046  0.82212823     0.82700
N1656       N  0.38184309  0.78691505  0.81915087    -0.79800
C1657       C  0.11715477  0.76390312  0.81321912     0.80200
N1658       N  0.12398241  0.79073944  0.82162510    -0.78100
C1659       C  0.10386053  0.81115989  0.82259937     0.82600
N1660       N  0.07655739  0.80470563  0.81400707    -0.78100
C1661       C  0.06979978  0.77758361  0.80517001     0.82700
N1662       N  0.09010885  0.75740229  0.80540740    -0.79800
O1663       O  0.47499472  0.99429595  0.71060778    -0.71800
O1664       O  0.03133123  0.96494713  0.76632056    -0.72000
O1665       O  0.47398930  0.96448331  0.76445147    -0.71900
O1666       O  0.03293581  0.99449476  0.71273712    -0.71900
O1667       O  0.03209257  0.53413590  0.73927947    -0.71800
O1668       O  0.47282528  0.50431736  0.79058097    -0.71900
O1669       O  0.03055484  0.50458694  0.79290679    -0.71800
O1670       O  0.47469970  0.53411414  0.73681593    -0.72000
V1671       V  0.00326736  0.98040387  0.73890543     1.35200
V1672       V  0.00250901  0.51842359  0.76451853     1.35200
C1673       C  0.46456507  0.51873878  0.71484744     0.77400
C1674       C  0.04149658  0.98048687  0.78811415     0.77500
C1675       C  0.46268823  0.97979252  0.78566312     0.77400
C1676       C  0.04343425  0.51878760  0.71812442     0.77300
C1677       C  0.11658890  0.98817372  0.80639045     0.80200
N1678       N  0.08935976  0.99375350  0.79908564    -0.78100
C1679       C  0.06901675  0.97392684  0.80252307     0.82600
N1680       N  0.07595503  0.94803443  0.81439313    -0.78100
C1681       C  0.10353380  0.94251859  0.82261187     0.82700
N1682       N  0.12375436  0.96255812  0.81799704    -0.79800
C1683       C  0.38821780  0.98618897  0.80857908     0.80200
N1684       N  0.41498613  0.99203450  0.79962984    -0.78100
C1685       C  0.43539657  0.97200049  0.80029436     0.82600
N1686       N  0.42900801  0.94550527  0.81121144    -0.78100
C1687       C  0.40182268  0.93961913  0.82081433     0.82700
N1688       N  0.38161976  0.95997233  0.81878583    -0.79800
O1689       O  0.22204558  0.74330518  0.96095200    -0.71800
O1690       O  0.28159431  0.71486728  0.51301579    -0.72000
O1691       O  0.22425831  0.71408823  0.51460632    -0.71900
O1692       O  0.27985921  0.74352465  0.95924501    -0.71900
O1693       O  0.28088242  0.78319348  0.98572062    -0.71800
O1694       O  0.22361334  0.75408661  0.54042727    -0.71900
O1695       O  0.28144581  0.75428538  0.53993449    -0.71800
O1696       O  0.22360431  0.78356229  0.98620587    -0.72000
V1697       V  0.25192518  0.72961138  0.98758481     1.35200
V1698       V  0.25228387  0.76823591  0.51293015     1.35200
C1699       C  0.21224574  0.76806593  0.96512408     0.77400
C1700       C  0.29219869  0.73013181  0.53489917     0.77500
C1701       C  0.21364701  0.72939922  0.53620696     0.77400
C1702       C  0.29062139  0.76781804  0.96357729     0.77300
C1703       C  0.36186894  0.76005107  0.92997456     0.80200
N1704       N  0.33602414  0.75475139  0.94227405    -0.78100
C1705       C  0.31657604  0.77549045  0.94622083     0.82600
N1706       N  0.32275513  0.80236721  0.93662606    -0.78100
C1707       C  0.34878114  0.80783203  0.92366091     0.82700
N1708       N  0.36805896  0.78669507  0.92083705    -0.79800
C1709       C  0.13770377  0.76475265  0.93940068     0.80200
N1710       N  0.13321282  0.79107206  0.92826960    -0.78100
C1711       C  0.15443919  0.81034088  0.92687607     0.82600
N1712       N  0.18096085  0.80326465  0.93768007    -0.78100
C1713       C  0.18557799  0.77665839  0.94934033     0.82700
N1714       N  0.16396087  0.75777061  0.94975385    -0.79800
O1715       O  0.41369211  0.65532282  0.64007704    -0.71800
O1716       O  0.38422905  0.59573742  0.58785600    -0.72000
O1717       O  0.38374760  0.65356072  0.58599366    -0.71900
O1718       O  0.41413713  0.59802838  0.64162151    -0.71900
O1719       O  0.37431317  0.59800637  0.66736631    -0.71800
O1720       O  0.34415782  0.65420901  0.61216633    -0.71900
O1721       O  0.34437994  0.59683643  0.61356109    -0.71800
O1722       O  0.37409573  0.65585360  0.66628412    -0.72000
V1723       V  0.39809328  0.62571272  0.61425997     1.35200
V1724       V  0.36009114  0.62625478  0.63947958     1.35200
C1725       C  0.39833473  0.66643342  0.66130502     0.77400
C1726       C  0.35996943  0.58520576  0.59292263     0.77500
C1727       C  0.35939844  0.66422684  0.59036233     0.77400
C1728       C  0.39866792  0.58739899  0.66279733     0.77300
O1729       O  0.22517770  0.53264885  0.52436581    -0.71800
O1730       O  0.28199266  0.50597237  0.96584657    -0.72000
O1731       O  0.22417211  0.50626838  0.96690401    -0.71900
O1732       O  0.28250222  0.53265461  0.52272428    -0.71900
O1733       O  0.28326432  0.99123429  0.54439754    -0.71800
O1734       O  0.22467577  0.96494811  0.98894284    -0.71900
O1735       O  0.28187004  0.96468050  0.98789787    -0.71800
O1736       O  0.22521458  0.99110800  0.54571744    -0.72000
V1737       V  0.25348828  0.51827053  0.99507038     1.35200
V1738       V  0.25366454  0.97930332  0.51623380     1.35200
C1739       C  0.21484997  0.51577646  0.54436403     0.77400
C1740       C  0.29219778  0.98120478  0.96763731     0.77500
C1741       C  0.21379382  0.98169609  0.96921543     0.77400
C1742       C  0.29355344  0.51590339  0.54230603     0.77300
C1743       C  0.14008240  0.98902849  0.94268131     0.80200
N1744       N  0.13445693  0.96294414  0.93061956    -0.78100
C1745       C  0.15484698  0.94276917  0.92910163     0.82600
N1746       N  0.18141563  0.94852603  0.94049332    -0.78100
C1747       C  0.18712606  0.97475191  0.95285238     0.82700
N1748       N  0.16655958  0.99470924  0.95340540    -0.79800
C1749       C  0.36435858  0.98736380  0.93545659     0.80200
N1750       N  0.33858089  0.99349861  0.94783752    -0.78100
C1751       C  0.31799460  0.97354138  0.94966617     0.82600
N1752       N  0.32308795  0.94677855  0.93814706    -0.78100
C1753       C  0.34905969  0.94065064  0.92533706     0.82700
N1754       N  0.36928274  0.96088646  0.92461214    -0.79800
O1755       O  0.13565302  0.65510686  0.67263647    -0.71800
O1756       O  0.16591992  0.59669585  0.61963417    -0.72000
O1757       O  0.16502553  0.65424606  0.61799590    -0.71900
O1758       O  0.13629386  0.59735830  0.67360496    -0.71900
O1759       O  0.09604155  0.59722483  0.64835133    -0.71800
O1760       O  0.12532415  0.65210238  0.59179243    -0.71900
O1761       O  0.12562718  0.59446719  0.59455850    -0.71800
O1762       O  0.09598481  0.65421319  0.64625092    -0.72000
V1763       V  0.14990004  0.62588329  0.64560494     1.35200
V1764       V  0.11164010  0.62458628  0.62059667     1.35200
C1765       C  0.11120564  0.66528164  0.66782269     0.77400
C1766       C  0.15020083  0.58449128  0.59936284     0.77500
C1767       C  0.14946184  0.66339437  0.59579619     0.77400
C1768       C  0.11174688  0.58683426  0.66950540     0.77300
C1769       C  0.14374265  0.50897633  0.57990536     0.80200
N1770       N  0.13806020  0.53585360  0.58892623    -0.78100
C1771       C  0.15769616  0.55653846  0.58598485     0.82600
N1772       N  0.18348978  0.55033630  0.57280242    -0.78100
C1773       C  0.18922797  0.52317013  0.56304802     0.82700
N1774       N  0.16929228  0.50267658  0.56698952    -0.79800
C1775       C  0.36649214  0.51001522  0.57239644     0.80200
N1776       N  0.34017884  0.50328118  0.56183789    -0.78100
C1777       C  0.31994216  0.52352001  0.55923349     0.82600
N1778       N  0.32602355  0.55078057  0.56822283    -0.78100
C1779       C  0.35255780  0.55740637  0.57921214     0.82700
N1780       N  0.37261701  0.53700928  0.58070722    -0.79800
C1781       C  0.36575115  0.73719670  0.56267741     0.80200
N1782       N  0.37179522  0.71114856  0.57357935    -0.78100
C1783       C  0.35165807  0.69067845  0.57407491     0.82600
N1784       N  0.32502669  0.69625880  0.56242885    -0.78100
C1785       C  0.31912242  0.72263609  0.55085371     0.82700
N1786       N  0.33948083  0.74289840  0.55164321    -0.79800
C1787       C  0.13924117  0.73332008  0.56033286     0.80200
N1788       N  0.16527991  0.73970370  0.54932216    -0.78100
C1789       C  0.18705542  0.72122614  0.55193686     0.82600
N1790       N  0.18282110  0.69568467  0.56642294    -0.78100
C1791       C  0.15638253  0.68927467  0.57784219     0.82700
N1792       N  0.13500735  0.70810482  0.57431740    -0.79800
C1793       C  0.11706705  0.51211986  0.69056097     0.80200
N1794       N  0.12356009  0.53901610  0.68274839    -0.78100
C1795       C  0.10403203  0.55990499  0.68451280     0.82600
N1796       N  0.07720745  0.55386112  0.69487339    -0.78100
C1797       C  0.07061990  0.52674763  0.70332132     0.82700
N1798       N  0.09051017  0.50620337  0.70055712    -0.79800
C1799       C  0.39220463  0.51246794  0.68333677     0.80200
N1800       N  0.41838683  0.50645146  0.69449119    -0.78100
C1801       C  0.43842493  0.52679319  0.69791636     0.82600
N1802       N  0.43244502  0.55393264  0.68902122    -0.78100
C1803       C  0.40605992  0.56009453  0.67726377     0.82700
N1804       N  0.38628508  0.53935561  0.67488543    -0.79800
C1805       C  0.39232957  0.74145790  0.68302850     0.80200
N1806       N  0.41829452  0.74727424  0.69533972    -0.78100
C1807       C  0.43803328  0.72662198  0.69869108     0.82600
N1808       N  0.43195143  0.69964689  0.68870201    -0.78100
C1809       C  0.40586792  0.69382223  0.67591579     0.82700
N1810       N  0.38640329  0.71468778  0.67352450    -0.79800
C1811       C  0.11607462  0.74055457  0.68773880     0.80200
N1812       N  0.08958907  0.74661695  0.69794888    -0.78100
C1813       C  0.06994910  0.72594321  0.70138414     0.82600
N1814       N  0.07664897  0.69860297  0.69333825    -0.78100
C1815       C  0.10338996  0.69246429  0.68276433     0.82700
N1816       N  0.12276057  0.71345675  0.68050130    -0.79800
N1817       N  0.00463854  0.91687539  0.57372960    -0.36600
N1818       N  0.04790920  0.87312758  0.57014831    -0.57200
N1819       N  0.00382122  0.83071860  0.56154239    -0.36600
N1820       N  0.46057487  0.87408237  0.56951532    -0.57200
C1821       C  0.02748233  0.93120042  0.58469112     0.27000
C1822       C  0.48147917  0.93176361  0.58238136     0.27000
C1823       C  0.02676502  0.81387489  0.56475873     0.27000
C1824       C  0.48055838  0.81462608  0.56655050     0.27000
C1825       C  0.06462031  0.89634547  0.56961920     0.35600
C1826       C  0.06445583  0.85096871  0.56179626     0.35600
C1827       C  0.44502325  0.89748350  0.56441366     0.35600
C1828       C  0.44434330  0.85205577  0.56009762     0.35600
C1829       C  0.01874701  0.95553304  0.60053424    -0.21900
C1830       C  0.48960539  0.95590719  0.59900768    -0.21900
C1831       C  0.01767165  0.78647671  0.57089066    -0.21900
C1832       C  0.48874810  0.78718999  0.57295434    -0.21900
C1833       C  0.09197054  0.88889543  0.56107525    -0.23000
C1834       C  0.09201022  0.86015832  0.55676917    -0.23000
C1835       C  0.41876741  0.89032039  0.55175202    -0.23000
C1836       C  0.41828856  0.86140647  0.54916877    -0.23000
C1837       C  0.05597883  0.92386639  0.57881434    -0.18300
C1838       C  0.45340259  0.92490288  0.57379249    -0.18300
C1839       C  0.45208869  0.82354820  0.56341834    -0.18300
C1840       C  0.05549599  0.82237653  0.56107601    -0.18300
H1841       H  0.03201521  0.97149323  0.61170771     0.14600
H1842       H  0.47597068  0.97218367  0.60877991     0.14600
H1843       H  0.03009494  0.76746442  0.57323651     0.14600
H1844       H  0.47532991  0.76920439  0.57782481     0.14600
H1845       H  0.11023110  0.90257691  0.55884364     0.12900
H1846       H  0.11047570  0.84762166  0.55103823     0.12900
H1847       H  0.40160600  0.90440613  0.54554254     0.12900
H1848       H  0.40076632  0.84869698  0.54042809     0.12900
H1849       H  0.00485240  0.89902444  0.55914306     0.26100
H1850       H  0.00401120  0.85167077  0.55460398     0.26100
N1851       N  0.25387301  0.91941490  0.66732999    -0.36600
N1852       N  0.29673726  0.87642073  0.66687624    -0.57200
N1853       N  0.25368476  0.83261515  0.66539245    -0.36600
N1854       N  0.21093111  0.87572101  0.66995705    -0.57200
C1855       C  0.27715119  0.93345937  0.67738802     0.27000
C1856       C  0.23130949  0.93297704  0.67967432     0.27000
C1857       C  0.27697559  0.81858686  0.67501676     0.27000
C1858       C  0.23097672  0.81819330  0.67595021     0.27000
C1859       C  0.31195560  0.89921824  0.65838788     0.35600
C1860       C  0.31200546  0.85364953  0.65805459     0.35600
C1861       C  0.19540290  0.89864299  0.66281780     0.35600
C1862       C  0.19513556  0.85313112  0.66142771     0.35600
C1863       C  0.26941916  0.95607976  0.69659529    -0.21900
C1864       C  0.24025794  0.95575975  0.69812532    -0.21900
C1865       C  0.26907581  0.79494395  0.69204740    -0.21900
C1866       C  0.23985113  0.79468011  0.69262188    -0.21900
C1867       C  0.33678917  0.89099174  0.64365612    -0.23000
C1868       C  0.33693025  0.86191149  0.64360044    -0.23000
C1869       C  0.16987053  0.89069679  0.64923217    -0.23000
C1870       C  0.16950067  0.86164328  0.64856058    -0.23000
C1871       C  0.30485194  0.92692283  0.66769104    -0.18300
C1872       C  0.20304726  0.92618898  0.67221753    -0.18300
C1873       C  0.20267331  0.82529958  0.66894607    -0.18300
C1874       C  0.30487825  0.82593953  0.66666087    -0.18300
H1875       H  0.28339736  0.97119627  0.70801888     0.14600
H1876       H  0.22712708  0.97064413  0.71100486     0.14600
H1877       H  0.28291374  0.77940189  0.70261232     0.14600
H1878       H  0.22666909  0.77893469  0.70377595     0.14600
H1879       H  0.35299789  0.90462333  0.63431546     0.12900
H1880       H  0.35340718  0.84835899  0.63432188     0.12900
H1881       H  0.15340305  0.90454910  0.64098349     0.12900
H1882       H  0.15231133  0.84834715  0.64008850     0.12900
H1883       H  0.25330872  0.90263860  0.65103314     0.26100
H1884       H  0.25329086  0.85013474  0.65059179     0.26100
N1885       N  0.20848095  0.62466518  0.79988331    -0.36600
N1886       N  0.25140391  0.66743543  0.80229311    -0.57200
N1887       N  0.29478412  0.62362304  0.80245276    -0.36600
N1888       N  0.25179587  0.58090029  0.79549371    -0.57200
C1889       C  0.19334749  0.64829400  0.79441376     0.27000
C1890       C  0.19381838  0.60275515  0.78733219     0.27000
C1891       C  0.30926673  0.64653541  0.79269609     0.27000
C1892       C  0.30965037  0.60057810  0.79329600     0.27000
C1893       C  0.22908675  0.68212334  0.81362221     0.35600
C1894       C  0.27475424  0.68198533  0.81103983     0.35600
C1895       C  0.22824980  0.56569155  0.80101230     0.35600
C1896       C  0.27370049  0.56532972  0.80612557     0.35600
C1897       C  0.16872044  0.64143714  0.77794678    -0.21900
C1898       C  0.16900762  0.61250294  0.77348285    -0.21900
C1899       C  0.33350321  0.63789129  0.77668794    -0.21900
C1900       C  0.33390162  0.60876534  0.77741690    -0.21900
C1901       C  0.23824525  0.70612105  0.82984150    -0.23000
C1902       C  0.26734731  0.70601826  0.82822683    -0.23000
C1903       C  0.23510952  0.54026359  0.81516145    -0.23000
C1904       C  0.26406128  0.54018764  0.81877536    -0.23000
C1905       C  0.20073720  0.67529832  0.80624532    -0.18300
C1906       C  0.20093197  0.57416869  0.79175803    -0.18300
C1907       C  0.30218365  0.57260986  0.80080693    -0.13500
C1908       C  0.30222830  0.67474333  0.80088420    -0.18300
H1909       H  0.15208166  0.65568369  0.77054568     0.14600
H1910       H  0.15253892  0.59996776  0.76216523     0.14600
H1911       H  0.34953387  0.65118298  0.76617708     0.14600
H1912       H  0.35012647  0.59518799  0.76746126     0.14600
H1913       H  0.22532005  0.72220597  0.84112091     0.12900
H1914       H  0.28139777  0.72197503  0.83808935     0.12900
H1915       H  0.22078959  0.52356894  0.82210830     0.12900
H1916       H  0.27661918  0.52329338  0.82869931     0.12900
H1917       H  0.22668843  0.62332312  0.81383528     0.26100
H1918       H  0.27678048  0.62365188  0.81672151     0.26100
N1919       N  0.00134022  0.66865293  0.92925078    -0.36600
N1920       N  0.04467777  0.62605601  0.93930963    -0.57200
N1921       N  0.00174847  0.58252850  0.93396127    -0.36600
N1922       N  0.45852030  0.62508894  0.92767030    -0.57200
C1923       C  0.02287842  0.68390313  0.94189673     0.27000
C1924       C  0.47725561  0.68332107  0.93452051     0.27000
C1925       C  0.02415650  0.56859239  0.94606384     0.27000
C1926       C  0.47822701  0.56840379  0.94274511     0.27000
C1927       C  0.06062090  0.64893112  0.93281058     0.35600
C1928       C  0.06093059  0.60326107  0.93292442     0.35600
C1929       C  0.44375915  0.64691548  0.91583274     0.35600
C1930       C  0.44369504  0.60157869  0.92030626     0.35600
C1931       C  0.01239675  0.70857719  0.95549096    -0.21900
C1932       C  0.48347035  0.70816384  0.95093843    -0.21900
C1933       C  0.01490294  0.54538107  0.96293900    -0.21900
C1934       C  0.48576370  0.54531229  0.96095754    -0.21900
C1935       C  0.08717019  0.64073428  0.92218975    -0.23000
C1936       C  0.08733762  0.61166752  0.92212852    -0.23000
C1937       C  0.41944379  0.63728990  0.90056360    -0.23000
C1938       C  0.41941577  0.60837339  0.90338733    -0.23000
C1939       C  0.05182450  0.67691435  0.93891351    -0.18300
C1940       C  0.45025049  0.67530036  0.92298425    -0.18300
C1941       C  0.45053896  0.57481666  0.93228391    -0.18300
C1942       C  0.05262912  0.57530746  0.93964648    -0.18300
H1943       H  0.02439305  0.72523674  0.96717532     0.14600
H1944       H  0.46876561  0.72443535  0.95845932     0.14600
H1945       H  0.02784639  0.52992813  0.97498201     0.14600
H1946       H  0.47177623  0.52976225  0.97120198     0.14600
H1947       H  0.10461284  0.65426796  0.91549906     0.12900
H1948       H  0.10497263  0.59833193  0.91532208     0.12900
H1949       H  0.40303283  0.64985494  0.88956457     0.12900
H1950       H  0.40298303  0.59413589  0.89498493     0.12900
H1951       H  0.00321739  0.65008826  0.91572768     0.26100
H1952       H  0.00273604  0.59952426  0.91842207     0.26100
C1953       C  0.13728785  0.76314462  0.68268227    -0.00200
C1954       C  0.15907689  0.75808145  0.66060684    -0.12100
C1955       C  0.18016030  0.77817855  0.65529557     0.02100
C1956       C  0.17999146  0.80383148  0.67257378    -0.00300
C1957       C  0.15798662  0.80926868  0.69407927    -0.12000
C1958       C  0.13657049  0.78940660  0.69907670     0.01900
H1959       H  0.15955143  0.73843678  0.64708082     0.14900
H1960       H  0.15777213  0.82905978  0.70735223     0.14900
C1961       C  0.11474678  0.79653941  0.72171687     0.36600
C1962       C  0.20139600  0.77221004  0.63156780     0.36500
N1963       N  0.09724002  0.80257065  0.73971451    -0.43800
N1964       N  0.21841633  0.76738439  0.61256925    -0.43800
C1965       C  0.37056139  0.76385123  0.67907190    -0.00200
C1966       C  0.34846356  0.75902833  0.65707134    -0.12100
C1967       C  0.32723837  0.77909875  0.65228191     0.02100
C1968       C  0.32770530  0.80461944  0.66975808    -0.00300
C1969       C  0.34956743  0.80961755  0.69172497    -0.12000
C1970       C  0.37083058  0.78955986  0.69665907     0.01900
H1971       H  0.34784950  0.73962732  0.64311755     0.14900
H1972       H  0.34964292  0.82910133  0.70557375     0.14900
C1973       C  0.39173466  0.79574243  0.72083881     0.36600
C1974       C  0.30529082  0.77313420  0.62916581     0.36500
N1975       N  0.40835068  0.80105048  0.74027822    -0.43800
N1976       N  0.28753184  0.76835866  0.61085439    -0.43800
C1977       C  0.37028149  0.99002453  0.67973993    -0.00200
C1978       C  0.34649926  0.99546921  0.66049487    -0.12100
C1979       C  0.32542632  0.97508657  0.65566890     0.02100
C1980       C  0.32743978  0.94874999  0.67079407    -0.00300
C1981       C  0.35090518  0.94326108  0.69023187    -0.12000
C1982       C  0.37235053  0.96334536  0.69462971     0.01900
H1983       H  0.34458439  0.01548415  0.64838249     0.14900
H1984       H  0.35238143  0.92312702  0.70220199     0.14900
C1985       C  0.39579989  0.45567788  0.71487899     0.36600
C1986       C  0.30248052  0.98140952  0.63420143     0.36500
N1987       N  0.41458394  0.44909116  0.73089992    -0.43800
N1988       N  0.28419771  0.98663935  0.61689026    -0.43800
C1989       C  0.13861173  0.98951817  0.68645651    -0.00200
C1990       C  0.16196312  0.99491428  0.66672266    -0.12100
C1991       C  0.18255763  0.97435374  0.66107477     0.02100
C1992       C  0.18078362  0.94807457  0.67628764    -0.00300
C1993       C  0.15773010  0.94258199  0.69617280    -0.12000
C1994       C  0.13646678  0.96271102  0.70095764     0.01900
H1995       H  0.16374902  0.51493111  0.65465188     0.14900
H1996       H  0.15632368  0.92236125  0.70796111     0.14900
C1997       C  0.11302560  0.95493748  0.72096088     0.36600
C1998       C  0.20440370  0.98014728  0.63818024     0.36500
N1999       N  0.09420888  0.94823246  0.73672692    -0.43800
N2000       N  0.22178570  0.98468024  0.61964104    -0.43800
C2001       C  0.11653234  0.75478794  0.55930874    -0.00200
C2002       C  0.11483902  0.77319347  0.53340814    -0.12100
C2003       C  0.09435566  0.79463384  0.53273288     0.02100
C2004       C  0.07760539  0.79995459  0.55990208    -0.00300
C2005       C  0.08052862  0.78244330  0.58625153    -0.12000
C2006       C  0.09747610  0.75847025  0.58470382     0.01900
H2007       H  0.12874043  0.77012691  0.51322013     0.14900
H2008       H  0.06731651  0.78599035  0.60695849     0.14900
C2009       C  0.09164393  0.73640040  0.60686972     0.36600
C2010       C  0.09064574  0.81052982  0.50395832     0.36500
N2011       N  0.08525423  0.71795760  0.62306257    -0.43800
N2012       N  0.08529979  0.82057988  0.97870526    -0.43800
C2013       C  0.38767898  0.75917279  0.56253141    -0.00200
C2014       C  0.38630090  0.78127625  0.58486165    -0.12100
C2015       C  0.40756502  0.80188407  0.58625016     0.02100
C2016       C  0.42925030  0.80181713  0.56319794    -0.00300
C2017       C  0.43003671  0.78006309  0.54031820    -0.12000
C2018       C  0.41028832  0.75810885  0.54087007     0.01900
H2019       H  0.36923373  0.78182230  0.60193758     0.14900
H2020       H  0.44698445  0.77954115  0.52298108     0.14900
C2021       C  0.41480237  0.73391658  0.52048498     0.36600
C2022       C  0.40777576  0.82174879  0.61254020     0.36500
N2023       N  0.41935149  0.71413593  0.50499650    -0.43800
N2024       N  0.40843479  0.83745074  0.63379778    -0.43800
C2025       C  0.43163003  0.94740670  0.57500579    -0.00200
C2026       C  0.43369861  0.96994139  0.55387802    -0.12100
C2027       C  0.41282092  0.99080459  0.55315570     0.02100
C2028       C  0.38892728  0.98860180  0.57298301    -0.00300
C2029       C  0.38692406  0.96613760  0.59427256    -0.12000
C2030       C  0.40859021  0.94606934  0.59613402     0.01900
H2031       H  0.45162832  0.97113095  0.53789119     0.14900
H2032       H  0.36882645  0.96461986  0.60985704     0.14900
C2033       C  0.40764079  0.92490467  0.62052963     0.36600
C2034       C  0.41617560  0.51401908  0.53160614     0.36500
N2035       N  0.40768668  0.90796924  0.64013298    -0.43800
N2036       N  0.41911679  0.53275867  0.51453801    -0.43800
C2037       C  0.12090304  0.98773379  0.58065840    -0.00200
C2038       C  0.12268845  0.96479986  0.60143132    -0.12100
C2039       C  0.10056007  0.94504646  0.60302478     0.02100
C2040       C  0.07777450  0.94655365  0.58138268    -0.00300
C2041       C  0.07571713  0.96979580  0.56120336    -0.12000
C2042       C  0.09646741  0.99084979  0.56161382     0.01900
H2043       H  0.14085575  0.96271524  0.61690551     0.14900
H2044       H  0.05766066  0.97160251  0.54532511     0.14900
C2045       C  0.09182991  0.01571977  0.54282141     0.36600
C2046       C  0.10056337  0.92413510  0.62771299     0.36500
N2047       N  0.08608849  0.53618615  0.02810464    -0.43800
N2048       N  0.09953147  0.90740456  0.64750796    -0.43800
C2049       C  0.38692532  0.50932404  0.93436531    -0.00200
C2050       C  0.38201182  0.53546567  0.94965266    -0.12100
C2051       C  0.40240314  0.55688942  0.94966252     0.02100
C2052       C  0.42829003  0.55262357  0.93367387    -0.00300
C2053       C  0.43346029  0.52660374  0.91869592    -0.12000
C2054       C  0.41332006  0.50500329  0.91890703     0.01900
H2055       H  0.36230363  0.53921562  0.96216352     0.14900
H2056       H  0.45338815  0.52327606  0.90640378     0.14900
C2057       C  0.42090848  0.47897300  0.90290411     0.36600
C2058       C  0.39658295  0.58263769  0.96721389     0.36500
N2059       N  0.42757868  0.95825478  0.89015025    -0.43800
N2060       N  0.39132539  0.60488486  0.47905691    -0.43800
C2061       C  0.07436686  0.55255873  0.94113998    -0.00200
C2062       C  0.09832774  0.55659992  0.96039192    -0.12100
C2063       C  0.11999012  0.53651179  0.96139268     0.02100
C2064       C  0.11755162  0.51107679  0.94339717    -0.00300
C2065       C  0.09300559  0.50676767  0.92483100    -0.12000
C2066       C  0.07172353  0.52726425  0.92327603     0.01900
H2067       H  0.10024688  0.57582034  0.97455105     0.14900
H2068       H  0.09079092  0.98775811  0.91039931     0.14900
C2069       C  0.04859224  0.52281188  0.90113417     0.36600
C2070       C  0.14421221  0.54305522  0.98119569     0.36500
N2071       N  0.03032565  0.51945690  0.88304887    -0.43800
N2072       N  0.16357677  0.54880736  0.99692914    -0.43800
C2073       C  0.07330048  0.69998597  0.94070109    -0.00200
C2074       C  0.07024446  0.72313900  0.92051715    -0.12100
C2075       C  0.08997006  0.74517937  0.92075335     0.02100
C2076       C  0.11442376  0.74356288  0.94030378    -0.00300
C2077       C  0.11701855  0.72063890  0.96111132    -0.12000
C2078       C  0.09645676  0.69934823  0.96198642     0.01900
H2079       H  0.05215248  0.72406385  0.90456579     0.14900
H2080       H  0.13497763  0.71948957  0.97720527     0.14900
C2081       C  0.09926991  0.67749928  0.98544655     0.36600
C2082       C  0.08390172  0.76917041  0.90107780     0.36500
N2083       N  0.10156115  0.66005723  0.00431809    -0.43800
N2084       N  0.07835354  0.78861926  0.88590062    -0.43800
C2085       C  0.38335353  0.73720313  0.92687253    -0.00200
C2086       C  0.40729831  0.74184309  0.90771075    -0.12100
C2087       C  0.42902478  0.72183020  0.90552722     0.02100
C2088       C  0.42699738  0.69645477  0.92253588    -0.00300
C2089       C  0.40276801  0.69125806  0.94066728    -0.12000
C2090       C  0.38108236  0.71117796  0.94309848     0.01900
H2091       H  0.40925565  0.76125801  0.89446093     0.14900
H2092       H  0.40126897  0.67182536  0.95401377     0.14900
C2093       C  0.35776942  0.70445497  0.96383929     0.36600
C2094       C  0.45304376  0.72761433  0.88543075     0.36500
N2095       N  0.33929693  0.69873039  0.98058725    -0.43800
N2096       N  0.47226028  0.73199397  0.86920545    -0.43800
C2097       C  0.32451632  0.55037184  0.80187596    -0.00200
C2098       C  0.34858106  0.55492481  0.82098210    -0.12100
C2099       C  0.36992411  0.53453188  0.82280344     0.02100
C2100       C  0.36650340  0.50834173  0.80691314    -0.00300
C2101       C  0.34269607  0.50379653  0.78756879    -0.12000
C2102       C  0.32224740  0.52492398  0.78408490     0.01900
H2103       H  0.35086943  0.57464747  0.83414041     0.14900
H2104       H  0.34063744  0.98413940  0.77420501     0.14900
C2105       C  0.29976173  0.52057279  0.76120313     0.36600
C2106       C  0.39543601  0.54129252  0.84031654     0.36500
N2107       N  0.28150863  0.51757037  0.74305266    -0.43800
N2108       N  0.41623151  0.54704990  0.85351757    -0.43800
C2109       C  0.17791149  0.55306233  0.79242911    -0.00200
C2110       C  0.15742826  0.55610439  0.81606900    -0.12100
C2111       C  0.13706269  0.53531526  0.82048993     0.02100
C2112       C  0.13785164  0.51029811  0.80208431    -0.00300
C2113       C  0.15781279  0.50749921  0.77765603    -0.12000
C2114       C  0.17749560  0.52907577  0.77223911     0.01900
H2115       H  0.15757243  0.57473173  0.83136158     0.14900
H2116       H  0.15759905  0.48883076  0.76248238     0.14900
C2117       C  0.19640623  0.52675952  0.74547728     0.36600
C2118       C  0.11550682  0.54058416  0.84386669     0.36500
N2119       N  0.21131320  0.52527284  0.72377034    -0.43800
N2120       N  0.09823425  0.54598866  0.86230406    -0.43800
C2121       C  0.17883037  0.69778021  0.80849690    -0.00200
C2122       C  0.18331876  0.72307005  0.79213043    -0.12100
C2123       C  0.16393199  0.74524402  0.79424188     0.02100
C2124       C  0.13893523  0.74184140  0.81198038    -0.00300
C2125       C  0.13411903  0.71649370  0.82801700    -0.12000
C2126       C  0.15405356  0.69465494  0.82688858     0.01900
H2127       H  0.20223597  0.72555724  0.77785292     0.14900
H2128       H  0.11497483  0.71399074  0.84192260     0.14900
C2129       C  0.14888657  0.66964172  0.84534269     0.36600
C2130       C  0.17005917  0.77105002  0.77764725     0.36500
N2131       N  0.14461164  0.64962367  0.86012323    -0.43800
N2132       N  0.17529944  0.79181302  0.76466213    -0.43800
C2133       C  0.36776743  0.73813980  0.80591877    -0.00200
C2134       C  0.34203353  0.74430720  0.79071894    -0.12100
C2135       C  0.32111414  0.72352380  0.78693588     0.02100
C2136       C  0.32483264  0.69678274  0.80108280    -0.00300
C2137       C  0.35067809  0.69075134  0.81609295    -0.12000
C2138       C  0.37259800  0.71048824  0.81695572     0.01900
H2139       H  0.33873067  0.76508246  0.78071880     0.14900
H2140       H  0.35403138  0.67019848  0.82661957     0.14900
C2141       C  0.39992800  0.70106972  0.82803140     0.36600
C2142       C  0.29662277  0.72984220  0.76756823     0.36500
N2143       N  0.42177360  0.69239816  0.83576715    -0.43800
N2144       N  0.27706884  0.73488364  0.75195005    -0.43800
O2145       O  0.84003765  0.34677267  0.38887010    -0.71800
O2146       O  0.86913499  0.40250847  0.33265534    -0.72000
O2147       O  0.86868928  0.34455219  0.33435099    -0.71900
O2148       O  0.84023768  0.40399830  0.38747599    -0.71900
O2149       O  0.88029838  0.40430915  0.41311030    -0.71800
O2150       O  0.90918163  0.34605804  0.35908208    -0.71900
O2151       O  0.90916694  0.40321307  0.35829116    -0.71800
O2152       O  0.88055985  0.34662030  0.41358118    -0.72000
V2153       V  0.85537764  0.37450021  0.36118256     1.35200
V2154       V  0.89392410  0.37508395  0.38566658     1.35200
C2155       C  0.85602384  0.33617099  0.40970048     0.77400
C2156       C  0.89362184  0.41316194  0.33662322     0.77500
C2157       C  0.89329015  0.33445287  0.33854093     0.77400
C2158       C  0.85588824  0.41481365  0.40879345     0.77300
O2159       O  0.59549670  0.40586991  0.35968927    -0.71800
O2160       O  0.62316770  0.34896700  0.41513440    -0.72000
O2161       O  0.62284575  0.40665811  0.41524357    -0.71900
O2162       O  0.59566023  0.34881934  0.35959597    -0.71900
O2163       O  0.63622377  0.34879129  0.33531483    -0.71800
O2164       O  0.66394821  0.40598756  0.39210913    -0.71900
O2165       O  0.66377665  0.34850850  0.39098880    -0.71800
O2166       O  0.63651384  0.40674848  0.33643481    -0.72000
V2167       V  0.61020073  0.37757643  0.38708868     1.35200
V2168       V  0.64928638  0.37752595  0.36402759     1.35200
C2169       C  0.61174649  0.41682897  0.33947717     0.77400
C2170       C  0.64751273  0.33805606  0.41158531     0.77500
C2171       C  0.64744770  0.41698118  0.41232626     0.77400
C2172       C  0.61175485  0.33816370  0.33882406     0.77300
O2173       O  0.53301896  0.24521137  0.29349075    -0.71800
O2174       O  0.97450284  0.21760764  0.23830522    -0.72000
O2175       O  0.53191134  0.21666015  0.23842778    -0.71900
O2176       O  0.97515586  0.24565738  0.29367072    -0.71900
O2177       O  0.97461040  0.28545823  0.26840348    -0.71800
O2178       O  0.53378654  0.25741740  0.21527292    -0.71900
O2179       O  0.97584134  0.25740890  0.21311811    -0.71800
O2180       O  0.53185097  0.28597832  0.27028337    -0.72000
V2181       V  0.50363731  0.23214381  0.26566423     1.35200
V2182       V  0.50401756  0.27071446  0.24210973     1.35200
C2183       C  0.54310255  0.26989240  0.29039022     0.77400
C2184       C  0.96462415  0.23335614  0.21687801     0.77500
C2185       C  0.54360139  0.23265547  0.21861181     0.77400
C2186       C  0.96410891  0.26965952  0.28928522     0.77300
C2187       C  0.88954554  0.26070818  0.30966757     0.80200
N2188       N  0.91676181  0.25552074  0.30181671    -0.78100
C2189       C  0.93660316  0.27613359  0.30367804     0.82600
N2190       N  0.92923013  0.30248885  0.31432817    -0.78100
C2191       C  0.90174626  0.30778890  0.32276894     0.82700
N2192       N  0.88201407  0.28693986  0.31983894    -0.79800
C2193       C  0.61789818  0.26436596  0.31246392     0.80200
N2194       N  0.62451932  0.29116879  0.32124416    -0.78100
C2195       C  0.60415927  0.31133825  0.32289154     0.82600
N2196       N  0.57682608  0.30467469  0.31462441    -0.78100
C2197       C  0.57025442  0.27759076  0.30547236     0.82700
N2198       N  0.59081005  0.25765686  0.30501598    -0.79800
O2199       O  0.97520396  0.49333051  0.20958940    -0.71800
O2200       O  0.53128517  0.46452863  0.26604151    -0.72000
O2201       O  0.97395016  0.46388566  0.26361247    -0.71900
O2202       O  0.53324410  0.49380046  0.21228719    -0.71900
O2203       O  0.53196067  0.03361984  0.23843167    -0.71800
O2204       O  0.97261137  0.00381164  0.28954888    -0.71900
O2205       O  0.53026440  0.00437543  0.29221249    -0.71800
O2206       O  0.97454845  0.03322343  0.23564927    -0.72000
V2207       V  0.50337083  0.47973065  0.23823656     1.35200
V2208       V  0.50232625  0.01789085  0.26356500     1.35200
C2209       C  0.96454039  0.01767996  0.21376316     0.77400
C2210       C  0.54125629  0.48026395  0.28777856     0.77500
C2211       C  0.96254670  0.47928621  0.28467962     0.77400
C2212       C  0.54362583  0.01816396  0.21761025     0.77300
C2213       C  0.61599554  0.48876483  0.30719854     0.80200
N2214       N  0.58876726  0.49406744  0.29965301    -0.78100
C2215       C  0.56865482  0.47393815  0.30256620     0.82600
N2216       N  0.57581210  0.44800696  0.31415233    -0.78100
C2217       C  0.60338339  0.44274477  0.32259527     0.82700
N2218       N  0.62339537  0.46307929  0.31845653    -0.79800
C2219       C  0.88823650  0.48604672  0.30806988     0.80200
N2220       N  0.91497378  0.49177738  0.29892042    -0.78100
C2221       C  0.93525268  0.47159159  0.29929695     0.82600
N2222       N  0.92878019  0.44510592  0.31013880    -0.78100
C2223       C  0.90161818  0.43935849  0.31987482     0.82700
N2224       N  0.88154856  0.45983033  0.31814042    -0.79800
O2225       O  0.72193028  0.24414017  0.46092293    -0.71800
O2226       O  0.78150861  0.21441970  0.01368142    -0.72000
O2227       O  0.72420754  0.21377741  0.01504797    -0.71900
O2228       O  0.77973662  0.24454962  0.45906477    -0.71900
O2229       O  0.78069475  0.28394294  0.48607775    -0.71800
O2230       O  0.72349842  0.25403397  0.04034792    -0.71900
O2231       O  0.78133079  0.25411090  0.04008090    -0.71800
O2232       O  0.72344313  0.28412847  0.48673108    -0.72000
V2233       V  0.75189662  0.23025800  0.48726609     1.35200
V2234       V  0.75232149  0.26785521  0.01274108     1.35200
C2235       C  0.71207125  0.26881577  0.46549131     0.77400
C2236       C  0.79199920  0.22985312  0.03548951     0.77500
C2237       C  0.71354469  0.22928828  0.03642936     0.77400
C2238       C  0.79046942  0.26880432  0.46377198     0.77300
C2239       C  0.86211012  0.26153202  0.43127893     0.80200
N2240       N  0.83616215  0.25604011  0.44317638    -0.78100
C2241       C  0.81652429  0.27663672  0.44680084     0.82600
N2242       N  0.82260322  0.30354612  0.43728625    -0.78100
C2243       C  0.84874842  0.30919071  0.42476137     0.82700
N2244       N  0.86821347  0.28821178  0.42225269    -0.79800
C2245       C  0.63732433  0.26575799  0.44058616     0.80200
N2246       N  0.63289066  0.29205088  0.42935744    -0.78100
C2247       C  0.65421189  0.31119248  0.42765893     0.82600
N2248       N  0.68076704  0.30402991  0.43823500    -0.78100
C2249       C  0.68532153  0.27746949  0.45000616     0.82700
N2250       N  0.66362260  0.25868970  0.45072679    -0.79800
O2251       O  0.91334405  0.15470505  0.14150679    -0.71800
O2252       O  0.88349250  0.09580904  0.08874944    -0.72000
O2253       O  0.88299049  0.15356974  0.08771890    -0.71900
O2254       O  0.91366393  0.09746179  0.14225893    -0.71900
O2255       O  0.87412733  0.09738965  0.16856481    -0.71800
O2256       O  0.84345647  0.15381680  0.11400117    -0.71900
O2257       O  0.84391169  0.09633533  0.11498114    -0.71800
O2258       O  0.87383667  0.15530186  0.16787689    -0.72000
V2259       V  0.89750295  0.12543940  0.11545744     1.35200
V2260       V  0.85966957  0.12574858  0.14099852     1.35200
C2261       C  0.89812223  0.16580023  0.16284327     0.77400
C2262       C  0.85938989  0.08502945  0.09397770     0.77500
C2263       C  0.85860300  0.16407731  0.09225454     0.77400
C2264       C  0.89836312  0.08670965  0.16349175     0.77300
O2265       O  0.72517461  0.03212289  0.02377966    -0.71800
O2266       O  0.78158033  0.00700018  0.46564818    -0.72000
O2267       O  0.72373023  0.00733072  0.46716217    -0.71900
O2268       O  0.78254110  0.03219858  0.02261047    -0.71900
O2269       O  0.78337378  0.49089662  0.04460580    -0.71800
O2270       O  0.72447209  0.46574866  0.48853583    -0.71900
O2271       O  0.78170850  0.46557625  0.48733597    -0.71800
O2272       O  0.72524641  0.49083307  0.04575486    -0.72000
V2273       V  0.75326113  0.01903156  0.49525225     1.35200
V2274       V  0.75379756  0.47872684  0.01654074     1.35200
C2275       C  0.71476452  0.01544225  0.04392788     0.77400
C2276       C  0.79187356  0.48226613  0.46713323     0.77500
C2277       C  0.71342691  0.48269171  0.46912151     0.77400
C2278       C  0.79361535  0.01559335  0.04232823     0.77300
C2279       C  0.63990149  0.49005488  0.44160696     0.80200
N2280       N  0.63428822  0.46388042  0.42981484    -0.78100
C2281       C  0.65460682  0.44362284  0.42880239     0.82600
N2282       N  0.68109602  0.44940354  0.44043537    -0.78100
C2283       C  0.68681681  0.47573201  0.45253364     0.82700
N2284       N  0.66631408  0.49577687  0.45256697    -0.79800
C2285       C  0.86354644  0.48892469  0.43354792     0.80200
N2286       N  0.83787989  0.49491632  0.44633456    -0.78100
C2287       C  0.81753661  0.47475317  0.44877975     0.82600
N2288       N  0.82278348  0.44793094  0.43750982    -0.78100
C2289       C  0.84863066  0.44194667  0.42429719     0.82700
N2290       N  0.86860161  0.46238967  0.42295208    -0.79800
O2291       O  0.63640399  0.15423004  0.17298017    -0.71800
O2292       O  0.66589545  0.09621135  0.11883633    -0.72000
O2293       O  0.66505953  0.15381388  0.11772386    -0.71900
O2294       O  0.63704200  0.09655204  0.17338344    -0.71900
O2295       O  0.59647299  0.09660221  0.14878385    -0.71800
O2296       O  0.62495387  0.15202303  0.09229868    -0.71900
O2297       O  0.62528483  0.09426864  0.09440313    -0.71800
O2298       O  0.59632975  0.15353089  0.14738402    -0.72000
V2299       V  0.65027949  0.12524890  0.14536634     1.35200
V2300       V  0.61167201  0.12419184  0.12104126     1.35200
C2301       C  0.61179513  0.16430422  0.16892272     0.77400
C2302       C  0.64989093  0.08417408  0.09871284     0.77500
C2303       C  0.64920435  0.16320289  0.09590263     0.77400
C2304       C  0.61240145  0.08613169  0.16967794     0.77300
C2305       C  0.64312119  0.00880767  0.07823247     0.80200
N2306       N  0.63744576  0.03568021  0.08735418    -0.78100
C2307       C  0.65722380  0.05630744  0.08486275     0.82600
N2308       N  0.68315521  0.05003455  0.07204081    -0.78100
C2309       C  0.68888666  0.02289686  0.06217256     0.82700
N2310       N  0.66881918  0.00246594  0.06570567    -0.79800
C2311       C  0.86680239  0.01022876  0.07182732     0.80200
N2312       N  0.84052446  0.00334024  0.06127444    -0.78100
C2313       C  0.82000643  0.02334783  0.05918735     0.82600
N2314       N  0.82572917  0.05052799  0.06879418    -0.78100
C2315       C  0.85220048  0.05730117  0.07987796     0.82700
N2316       N  0.87256236  0.03714606  0.08079863    -0.79800
C2317       C  0.86512261  0.23701391  0.06460662     0.80200
N2318       N  0.87095861  0.21107446  0.07590556    -0.78100
C2319       C  0.85081885  0.19061526  0.07618601     0.82600
N2320       N  0.82438157  0.19608420  0.06391155    -0.78100
C2321       C  0.81869070  0.22238490  0.05195710     0.82700
N2322       N  0.83906193  0.24263009  0.05293455    -0.79800
C2323       C  0.63898578  0.23306769  0.05999182     0.80200
N2324       N  0.66509655  0.23955279  0.04928092    -0.78100
C2325       C  0.68691353  0.22116592  0.05217330     0.82600
N2326       N  0.68262228  0.19561559  0.06665629    -0.78100
C2327       C  0.65610477  0.18909143  0.07781196     0.82700
N2328       N  0.63468199  0.20783730  0.07396870    -0.79800
C2329       C  0.61757249  0.01149819  0.19100842     0.80200
N2330       N  0.62419856  0.03840245  0.18336126    -0.78100
C2331       C  0.60466953  0.05930012  0.18491124     0.82600
N2332       N  0.57772940  0.05324422  0.19491333    -0.78100
C2333       C  0.57101742  0.02612573  0.20323458     0.82700
N2334       N  0.59091061  0.00556760  0.20065774    -0.79800
C2335       C  0.89212899  0.01141316  0.18214868     0.80200
N2336       N  0.91841289  0.00523315  0.19299052    -0.78100
C2337       C  0.93838343  0.02562479  0.19681571     0.82600
N2338       N  0.93221008  0.05289727  0.18870567    -0.78100
C2339       C  0.90576878  0.05920058  0.17731113     0.82700
N2340       N  0.88606300  0.03845094  0.17446411    -0.79800
C2341       C  0.89301697  0.24116977  0.18306367     0.80200
N2342       N  0.91898496  0.24683216  0.19543906    -0.78100
C2343       C  0.93838535  0.22597450  0.19948642     0.82600
N2344       N  0.93196265  0.19890506  0.19010045    -0.78100
C2345       C  0.90585765  0.19321657  0.17726002     0.82700
N2346       N  0.88674364  0.21431568  0.17418738    -0.79800
C2347       C  0.61711255  0.23892201  0.19137190     0.80200
N2348       N  0.59048410  0.24509889  0.20095453    -0.78100
C2349       C  0.57054100  0.22460537  0.20340027     0.82600
N2350       N  0.57706360  0.19733246  0.19480329    -0.78100
C2351       C  0.60398902  0.19108165  0.18483426     0.82700
N2352       N  0.62365438  0.21187463  0.18375869    -0.79800
N2353       N  0.50430488  0.41627043  0.07319213    -0.36600
N2354       N  0.54750079  0.37257711  0.06863559    -0.57200
N2355       N  0.50337989  0.33014906  0.06137276    -0.36600
N2356       N  0.96023268  0.37354751  0.07031250    -0.57200
C2357       C  0.52730607  0.43037799  0.08405972     0.27000
C2358       C  0.98130580  0.43100382  0.08271702     0.27000
C2359       C  0.52639572  0.31337926  0.06434628     0.27000
C2360       C  0.98026179  0.31411313  0.06732128     0.27000
C2361       C  0.56411865  0.39582621  0.06749933     0.35600
C2362       C  0.56387604  0.35044606  0.05979867     0.35600
C2363       C  0.94463155  0.39692671  0.06520311     0.35600
C2364       C  0.94391954  0.35145896  0.06127383     0.35600
C2365       C  0.51883921  0.45433213  0.10079712    -0.21900
C2366       C  0.98968364  0.45477098  0.09986179    -0.21900
C2367       C  0.51749711  0.28607478  0.07124559    -0.21900
C2368       C  0.98860842  0.28677166  0.07400370    -0.21900
C2369       C  0.59124324  0.38844048  0.05803788    -0.23000
C2370       C  0.59124368  0.35968307  0.05376822    -0.23000
C2371       C  0.91826850  0.38968007  0.05288756    -0.23000
C2372       C  0.91775166  0.36074127  0.05060860    -0.23000
C2373       C  0.55565964  0.42325597  0.07720694    -0.18300
C2374       C  0.95315050  0.42439505  0.07429798    -0.18300
C2375       C  0.95175151  0.32297333  0.06464710    -0.18300
C2376       C  0.55500533  0.32184575  0.05976169    -0.18300
H2377       H  0.53229652  0.47003865  0.11213981     0.14600
H2378       H  0.97619415  0.47082264  0.11033972     0.14600
H2379       H  0.53005871  0.26716092  0.07372890     0.14600
H2380       H  0.97529143  0.26885325  0.07947389     0.14600
H2381       H  0.60939610  0.40217715  0.05525096     0.12900
H2382       H  0.60956282  0.34715316  0.04744478     0.12900
H2383       H  0.90105568  0.40371771  0.04672612     0.12900
H2384       H  0.90014772  0.34797556  0.04219035     0.12900
H2385       H  0.50428158  0.39872718  0.05803698     0.26100
H2386       H  0.50338289  0.35104581  0.05401904     0.26100
N2387       N  0.75354762  0.41852827  0.16618426    -0.36600
N2388       N  0.79669148  0.37572469  0.16669558    -0.57200
N2389       N  0.75391855  0.33168286  0.16675609    -0.36600
N2390       N  0.71087109  0.37461877  0.17074371    -0.57200
C2391       C  0.77678138  0.43308389  0.17540710     0.27000
C2392       C  0.73097010  0.43239280  0.17802963     0.27000
C2393       C  0.77740439  0.31782807  0.17610308     0.27000
C2394       C  0.73141774  0.31722695  0.17776490     0.27000
C2395       C  0.81157279  0.39843687  0.15725756     0.35600
C2396       C  0.81196054  0.35290306  0.15801330     0.35600
C2397       C  0.69519317  0.39726612  0.16290664     0.35600
C2398       C  0.69520132  0.35173562  0.16291207     0.35600
C2399       C  0.76898873  0.45641889  0.19349405    -0.21900
C2400       C  0.73986147  0.45595490  0.19523734    -0.21900
C2401       C  0.76984575  0.29422764  0.19339425    -0.21900
C2402       C  0.74063306  0.29385288  0.19447703    -0.21900
C2403       C  0.83615761  0.39009926  0.14212193    -0.23000
C2404       C  0.83653489  0.36104794  0.14275324    -0.23000
C2405       C  0.66970063  0.38884746  0.14964368    -0.23000
C2406       C  0.66949986  0.35979578  0.14983142    -0.23000
C2407       C  0.80448445  0.42628828  0.16595581    -0.18300
C2408       C  0.70271133  0.42511937  0.17120960    -0.18300
C2409       C  0.70299839  0.32407917  0.17098174    -0.18300
C2410       C  0.80515106  0.32527905  0.16721589    -0.18300
H2411       H  0.78285984  0.47216499  0.20399349     0.14600
H2412       H  0.72671290  0.47129843  0.20739225     0.14600
H2413       H  0.78389476  0.27877554  0.20377565     0.14600
H2414       H  0.72768481  0.27807630  0.20591173     0.14600
H2415       H  0.85195244  0.40367160  0.13187863     0.12900
H2416       H  0.85289872  0.34744652  0.13328460     0.12900
H2417       H  0.65323678  0.40242903  0.14089554     0.12900
H2418       H  0.65242108  0.34621132  0.14166706     0.12900
H2419       H  0.75299651  0.40111923  0.15075441     0.26100
H2420       H  0.75324951  0.34908047  0.15179233     0.26100
N2421       N  0.70879393  0.12504907  0.29929004    -0.36600
N2422       N  0.75217398  0.16750033  0.30129557    -0.57200
N2423       N  0.79507752  0.12330593  0.30275666    -0.36600
N2424       N  0.75159174  0.08086483  0.29630928    -0.57200
C2425       C  0.69399526  0.14872640  0.29305152     0.27000
C2426       C  0.69390238  0.10305009  0.28730552     0.27000
C2427       C  0.80990253  0.14600177  0.29298097     0.27000
C2428       C  0.80968218  0.10005573  0.29377905     0.27000
C2429       C  0.72985627  0.18243093  0.31220736     0.35600
C2430       C  0.77553800  0.18174798  0.31062459     0.35600
C2431       C  0.72791513  0.06590742  0.30201695     0.35600
C2432       C  0.77339504  0.06519002  0.30699754     0.35600
C2433       C  0.66937038  0.14181447  0.27660675    -0.21900
C2434       C  0.66929465  0.11278970  0.27299819    -0.21900
C2435       C  0.83410465  0.13703107  0.27716314    -0.21900
C2436       C  0.83409344  0.10790692  0.27795587    -0.21900
C2437       C  0.73901948  0.20626379  0.32872273    -0.23000
C2438       C  0.76813552  0.20579574  0.32777672    -0.23000
C2439       C  0.73459283  0.04052806  0.31638756    -0.23000
C2440       C  0.76356752  0.04021185  0.31987836    -0.23000
C2441       C  0.70154486  0.17582687  0.30445966    -0.18300
C2442       C  0.70066995  0.07449863  0.29256204    -0.18300
C2443       C  0.80192886  0.07220836  0.30151319    -0.13500
C2444       C  0.80306704  0.17429964  0.30089173    -0.18300
H2445       H  0.65293152  0.15609443  0.26874657     0.14600
H2446       H  0.65271219  0.10021594  0.26195022     0.14600
H2447       H  0.85034348  0.15009494  0.26669195     0.14600
H2448       H  0.85018976  0.09410893  0.26811892     0.14600
H2449       H  0.72610345  0.22243536  0.33985270     0.12900
H2450       H  0.78221540  0.22153519  0.33802740     0.12900
H2451       H  0.72014726  0.02399461  0.32349035     0.12900
H2452       H  0.77601126  0.02326440  0.32986749     0.12900
H2453       H  0.72688977  0.12379817  0.31343744     0.26100
H2454       H  0.77700697  0.12361894  0.31692215     0.26100
N2455       N  0.50124151  0.16966060  0.42946467    -0.36600
N2456       N  0.54442308  0.12683225  0.43875202    -0.57200
N2457       N  0.50139056  0.08348206  0.43236027    -0.36600
N2458       N  0.95831044  0.12634037  0.42670265    -0.57200
C2459       C  0.52276099  0.18459934  0.44261755     0.27000
C2460       C  0.97716091  0.18430375  0.43497985     0.27000
C2461       C  0.52371734  0.06931894  0.44434530     0.27000
C2462       C  0.97774463  0.06939368  0.44085623     0.27000
C2463       C  0.56044283  0.14976772  0.43273554     0.35600
C2464       C  0.56061820  0.10408653  0.43197623     0.35600
C2465       C  0.94367543  0.14838759  0.41520486     0.35600
C2466       C  0.94346662  0.10299259  0.41877520     0.35600
C2467       C  0.51228508  0.20898223  0.45687156    -0.21900
C2468       C  0.98337163  0.20875692  0.45212897    -0.21900
C2469       C  0.51432589  0.04596798  0.46087563    -0.21900
C2470       C  0.98513923  0.04608761  0.45879483    -0.21900
C2471       C  0.58697820  0.14165393  0.42197981    -0.23000
C2472       C  0.58707566  0.11257820  0.42142215    -0.23000
C2473       C  0.91942272  0.13907005  0.39956984    -0.23000
C2474       C  0.91931691  0.11010468  0.40179254    -0.23000
C2475       C  0.55169759  0.17767138  0.43942342    -0.18300
C2476       C  0.95020582  0.17661681  0.42303944    -0.18300
C2477       C  0.95009638  0.07608070  0.43044058    -0.18300
C2478       C  0.55223896  0.07606379  0.43821115    -0.18300
H2479       H  0.52428168  0.22536720  0.46904349     0.14600
H2480       H  0.96868656  0.22490938  0.46001552     0.14600
H2481       H  0.52717817  0.03035271  0.47277518     0.14600
H2482       H  0.97105240  0.03052347  0.46884734     0.14600
H2483       H  0.60447051  0.15523556  0.41556273     0.12900
H2484       H  0.60469302  0.09927820  0.41446512     0.12900
H2485       H  0.90308800  0.15185026  0.38874753     0.12900
H2486       H  0.90290529  0.09602596  0.39298980     0.12900
H2487       H  0.50312778  0.15145543  0.41543625     0.26100
H2488       H  0.50248514  0.10062389  0.41712423     0.26100
C2489       C  0.63835391  0.26147000  0.18631081    -0.00200
C2490       C  0.66042955  0.25607731  0.16470159    -0.12100
C2491       C  0.68118114  0.27632602  0.15874358     0.02100
C2492       C  0.68052521  0.30245653  0.17507955    -0.00300
C2493       C  0.65824234  0.30820153  0.19613540    -0.12000
C2494       C  0.63705624  0.28820730  0.20162945     0.01900
H2495       H  0.66130743  0.23609862  0.15184972     0.14900
H2496       H  0.65759532  0.32837069  0.20863622     0.14900
C2497       C  0.61472681  0.29584009  0.22342623     0.36600
C2498       C  0.70246813  0.26998983  0.13518071     0.36500
N2499       N  0.59677320  0.30233078  0.24065333    -0.43800
N2500       N  0.71944900  0.26475662  0.11626582    -0.43800
C2501       C  0.87143311  0.26369899  0.17882206    -0.00200
C2502       C  0.84885186  0.25848045  0.15755049    -0.12100
C2503       C  0.82752744  0.27845892  0.15286539     0.02100
C2504       C  0.82817165  0.30413215  0.17002788    -0.00300
C2505       C  0.85061300  0.30961599  0.19111323    -0.12000
C2506       C  0.87219886  0.28981760  0.19562875     0.01900
H2507       H  0.84798125  0.23887466  0.14398381     0.14900
H2508       H  0.85098065  0.32934624  0.20450310     0.14900
C2509       C  0.89406907  0.29679611  0.21846284     0.36600
C2510       C  0.80548348  0.27239080  0.12989360     0.36500
N2511       N  0.91150496  0.30271333  0.23676459    -0.43800
N2512       N  0.78774215  0.26759667  0.11156608    -0.43800
C2513       C  0.87016048  0.48905594  0.17824607    -0.00200
C2514       C  0.84667443  0.49449750  0.15852207    -0.12100
C2515       C  0.82551080  0.47420676  0.15357456     0.02100
C2516       C  0.82721268  0.44797065  0.16895426    -0.00300
C2517       C  0.85038448  0.44250748  0.18883595    -0.12000
C2518       C  0.87182315  0.46254029  0.19349602     0.01900
H2519       H  0.84503843  0.51445139  0.14623689     0.14900
H2520       H  0.85154807  0.42249527  0.20109978     0.14900
C2521       C  0.89472586  0.95511942  0.21457777     0.36600
C2522       C  0.80260429  0.48057785  0.13205857     0.36500
N2523       N  0.91302706  0.94875531  0.23138850    -0.43800
N2524       N  0.78416493  0.48574177  0.11492626    -0.43800
C2525       C  0.63887597  0.48877691  0.18648159    -0.00200
C2526       C  0.66150993  0.49374663  0.16560889    -0.12100
C2527       C  0.68176967  0.47297389  0.15943207     0.02100
C2528       C  0.68031776  0.44688789  0.17511134    -0.00300
C2529       C  0.65788626  0.44177806  0.19597728    -0.12000
C2530       C  0.63703527  0.46218488  0.20147256     0.01900
H2531       H  0.66301773  0.01363863  0.15315769     0.14900
H2532       H  0.65678656  0.42174931  0.20820550     0.14900
C2533       C  0.61440823  0.45499609  0.22284673     0.36600
C2534       C  0.70319228  0.47847345  0.13594125     0.36500
N2535       N  0.59624318  0.44870213  0.23972695    -0.43800
N2536       N  0.72039105  0.48272266  0.11710072    -0.43800
C2537       C  0.61627234  0.25449911  0.05878719    -0.00200
C2538       C  0.61385456  0.27202908  0.03219408    -0.12100
C2539       C  0.59330334  0.29341387  0.03131519     0.02100
C2540       C  0.57714135  0.29947188  0.05873862    -0.00300
C2541       C  0.58074994  0.28282141  0.08567874    -0.12000
C2542       C  0.59799198  0.25904562  0.08470525     0.01900
H2543       H  0.62728093  0.26835192  0.01172834     0.14900
H2544       H  0.56800658  0.28697565  0.10662106     0.14900
C2545       C  0.59366551  0.23812382  0.10859743     0.36600
C2546       C  0.58889228  0.30849212  0.00210386     0.36500
N2547       N  0.58857022  0.22047057  0.12636410    -0.43800
N2548       N  0.58764094  0.32327853  0.48090166    -0.43800
C2549       C  0.88717664  0.25883057  0.06435013    -0.00200
C2550       C  0.88607314  0.28090270  0.08671909    -0.12100
C2551       C  0.90746762  0.30135490  0.08801693     0.02100
C2552       C  0.92898908  0.30119804  0.06478754    -0.00300
C2553       C  0.92955719  0.27943249  0.04190123    -0.12000
C2554       C  0.90963518  0.25763694  0.04250618     0.01900
H2555       H  0.86904676  0.28162813  0.10379694     0.14900
H2556       H  0.94636741  0.27885988  0.02439965     0.14900
C2557       C  0.91364082  0.23358371  0.02175629     0.36600
C2558       C  0.90790309  0.32119798  0.11432883     0.36500
N2559       N  0.91769727  0.21393828  0.00587091    -0.43800
N2560       N  0.90866817  0.33685877  0.13562199    -0.43800
C2561       C  0.93160263  0.44717652  0.07533726    -0.00200
C2562       C  0.93453208  0.47022060  0.05499360    -0.12100
C2563       C  0.91389453  0.49135464  0.05412198     0.02100
C2564       C  0.88927613  0.48881405  0.07277017    -0.00300
C2565       C  0.88647010  0.46587461  0.09329315    -0.12000
C2566       C  0.90799265  0.44571520  0.09562665     0.01900
H2567       H  0.95296264  0.47162106  0.03976056     0.14900
H2568       H  0.86783754  0.46405536  0.10799335     0.14900
C2569       C  0.90636536  0.42439261  0.11979257     0.36600
C2570       C  0.91831733  0.01520387  0.03365109     0.36500
N2571       N  0.90595901  0.40734040  0.13925875    -0.43800
N2572       N  0.92217241  0.03442143  0.01749697    -0.43800
C2573       C  0.62032913  0.48743880  0.07899108    -0.00200
C2574       C  0.62254399  0.46414638  0.09922957    -0.12100
C2575       C  0.60057884  0.44419871  0.10075010     0.02100
C2576       C  0.57745191  0.44595837  0.07961871    -0.00300
C2577       C  0.57494670  0.46953638  0.05999743    -0.12000
C2578       C  0.59561072  0.49069293  0.06042548     0.01900
H2579       H  0.64092277  0.46193151  0.11436780     0.14900
H2580       H  0.55662441  0.47150985  0.04453382     0.14900
C2581       C  0.59064036  0.51575807  0.04207559     0.36600
C2582       C  0.60099211  0.42281999  0.12492146     0.36500
N2583       N  0.58755155  0.03596522  0.52848344    -0.43800
N2584       N  0.60002867  0.40564516  0.14423300    -0.43800
C2585       C  0.88600242  0.01100501  0.43205584    -0.00200
C2586       C  0.88115038  0.03719047  0.44727412    -0.12100
C2587       C  0.90168989  0.05849087  0.44743680     0.02100
C2588       C  0.92764062  0.05407372  0.43160401    -0.00300
C2589       C  0.93265107  0.02809272  0.41650055    -0.12000
C2590       C  0.91237305  0.00662648  0.41655930     0.01900
H2591       H  0.86143233  0.04101928  0.45973505     0.14900
H2592       H  0.95258629  0.02467537  0.40425152     0.14900
C2593       C  0.91984344  0.98064204  0.40040962     0.36600
C2594       C  0.89597411  0.08423475  0.46504574     0.36500
N2595       N  0.92648755  0.45991033  0.38765410    -0.43800
N2596       N  0.89183703  0.10326942  0.98123035    -0.43800
C2597       C  0.57400482  0.05334200  0.43970491    -0.00200
C2598       C  0.59759012  0.05714799  0.45959851    -0.12100
C2599       C  0.61928223  0.03709321  0.46072981     0.02100
C2600       C  0.61739108  0.01207805  0.44195663    -0.00300
C2601       C  0.59326139  0.00801958  0.42264024    -0.12000
C2602       C  0.57176995  0.02832357  0.42128189     0.01900
H2603       H  0.59912746  0.07609950  0.47426671     0.14900
H2604       H  0.59139788  0.48923621  0.40778469     0.14900
C2605       C  0.54863702  0.02381732  0.39915145     0.36600
C2606       C  0.64280851  0.04300754  0.48179491     0.36500
N2607       N  0.53033254  0.02039774  0.38112726    -0.43800
N2608       N  0.66156693  0.04813898  0.49867582    -0.43800
C2609       C  0.57312214  0.20078685  0.44147229    -0.00200
C2610       C  0.56975795  0.22428816  0.42184471    -0.12100
C2611       C  0.58940208  0.24640012  0.42225489     0.02100
C2612       C  0.61401702  0.24459621  0.44153329    -0.00300
C2613       C  0.61687621  0.22136774  0.46187576    -0.12000
C2614       C  0.59648844  0.19989850  0.46245605     0.01900
H2615       H  0.55153583  0.22537940  0.40609568     0.14900
H2616       H  0.63499148  0.22003221  0.47772749     0.14900
C2617       C  0.59981511  0.17751384  0.48518807     0.36600
C2618       C  0.58320726  0.27053147  0.40281416     0.36500
N2619       N  0.60258781  0.15960751  0.50342263    -0.43800
N2620       N  0.57762330  0.29003049  0.38772256    -0.43800
C2621       C  0.88365162  0.23877296  0.42805674    -0.00200
C2622       C  0.90778082  0.24372727  0.40928862    -0.12100
C2623       C  0.92938500  0.22363289  0.40670388     0.02100
C2624       C  0.92705267  0.19786732  0.42291145    -0.00300
C2625       C  0.90265455  0.19239049  0.44064652    -0.12000
C2626       C  0.88112107  0.21241694  0.44353910     0.01900
H2627       H  0.90995959  0.26342283  0.39661125     0.14900
H2628       H  0.90094168  0.17266854  0.45341967     0.14900
C2629       C  0.85769915  0.20542310  0.46399694     0.36600
C2630       C  0.95357575  0.22972295  0.38698206     0.36500
N2631       N  0.83913511  0.19946380  0.48050660    -0.43800
N2632       N  0.97295281  0.23435205  0.37108765    -0.43800
C2633       C  0.82411269  0.04985171  0.30262640    -0.00200
C2634       C  0.84848958  0.05458038  0.32119252    -0.12100
C2635       C  0.87010295  0.03444719  0.32234240     0.02100
C2636       C  0.86651460  0.00819195  0.30664911    -0.00300
C2637       C  0.84232480  0.00340644  0.28799819    -0.12000
C2638       C  0.82169517  0.02438349  0.28490970     0.01900
H2639       H  0.85092396  0.07436407  0.33420277     0.14900
H2640       H  0.84019572  0.48371273  0.27477034     0.14900
C2641       C  0.79902787  0.01990373  0.26228098     0.36600
C2642       C  0.89611337  0.04169898  0.33864718     0.36500
N2643       N  0.78073395  0.01667070  0.24422681    -0.43800
N2644       N  0.91727939  0.04798754  0.35076108    -0.43800
C2645       C  0.67748671  0.05354342  0.29317057    -0.00200
C2646       C  0.65637677  0.05715870  0.31602362    -0.12100
C2647       C  0.63572670  0.03657759  0.32020084     0.02100
C2648       C  0.63714640  0.01102243  0.30277877    -0.00300
C2649       C  0.65765538  0.00773368  0.27900894    -0.12000
C2650       C  0.67732491  0.02926920  0.27343779     0.01900
H2651       H  0.65612329  0.07615070  0.33072709     0.14900
H2652       H  0.65776822  0.98877354  0.26429804     0.14900
C2653       C  0.69625872  0.02677072  0.24672211     0.36600
C2654       C  0.61305582  0.04280189  0.34191963     0.36500
N2655       N  0.71107729  0.02520247  0.22494728    -0.43800
N2656       N  0.59482972  0.04911129  0.35879111    -0.43800
C2657       C  0.67968386  0.19834780  0.30683358    -0.00200
C2658       C  0.68428959  0.22388407  0.29096724    -0.12100
C2659       C  0.66496532  0.24611107  0.29350426     0.02100
C2660       C  0.63981660  0.24242221  0.31092456    -0.00300
C2661       C  0.63496402  0.21686406  0.32651367    -0.12000
C2662       C  0.65492064  0.19507820  0.32519997     0.01900
H2663       H  0.70330074  0.22656772  0.27689316     0.14900
H2664       H  0.61579774  0.21418327  0.34033639     0.14900
C2665       C  0.64988656  0.17003812  0.34365784     0.36600
C2666       C  0.67145969  0.27234446  0.27795432     0.36500
N2667       N  0.64577179  0.15001758  0.35849004    -0.43800
N2668       N  0.67706947  0.29347089  0.26591906    -0.43800
C2669       C  0.86822731  0.23808733  0.30634435    -0.00200
C2670       C  0.84258194  0.24402057  0.29087208    -0.12100
C2671       C  0.82188574  0.22305827  0.28685934     0.02100
C2672       C  0.82572505  0.19630910  0.30096593    -0.00300
C2673       C  0.85156433  0.19043618  0.31609653    -0.12000
C2674       C  0.87325016  0.21045568  0.31736973     0.01900
H2675       H  0.83916088  0.26478228  0.28088652     0.14900
H2676       H  0.85502382  0.16989483  0.32660477     0.14900
C2677       C  0.90051669  0.20147918  0.32912149     0.36600
C2678       C  0.79739531  0.22926221  0.26743905     0.36500
N2679       N  0.92236885  0.19329079  0.33748665    -0.43800
N2680       N  0.77777951  0.23417595  0.25186603    -0.43800
O2681       O  0.84024548  0.34587283  0.88822320    -0.71800
O2682       O  0.86931378  0.40260023  0.83316439    -0.72000
O2683       O  0.86888700  0.34456595  0.83372414    -0.71900
O2684       O  0.84046121  0.40315943  0.88800337    -0.71900
O2685       O  0.88057387  0.40311001  0.91353668    -0.71800
O2686       O  0.90934449  0.34563576  0.85856182    -0.71900
O2687       O  0.90939591  0.40285728  0.85868808    -0.71800
O2688       O  0.88072972  0.34538555  0.91299081    -0.72000
V2689       V  0.85558330  0.37408953  0.86111784     1.35200
V2690       V  0.89413605  0.37429100  0.88558950     1.35200
C2691       C  0.85619331  0.33496768  0.90889634     0.77400
C2692       C  0.89381025  0.41320228  0.83727184     0.77500
C2693       C  0.89341431  0.33429590  0.83789542     0.77400
C2694       C  0.85617661  0.41368944  0.90943745     0.77300
O2695       O  0.59562726  0.40573571  0.85992864    -0.71800
O2696       O  0.62325168  0.34814823  0.91463611    -0.72000
O2697       O  0.62311284  0.40585582  0.91541517    -0.71900
O2698       O  0.59551533  0.34867916  0.85922977    -0.71900
O2699       O  0.63611602  0.34842743  0.83502325    -0.71800
O2700       O  0.66403868  0.40548917  0.89188501    -0.71900
O2701       O  0.66389585  0.34799690  0.89057159    -0.71800
O2702       O  0.63647376  0.40634906  0.83629099    -0.72000
V2703       V  0.61028492  0.37710331  0.88697438     1.35200
V2704       V  0.64930120  0.37708668  0.86376566     1.35200
C2705       C  0.61180138  0.41659166  0.83955540     0.77400
C2706       C  0.64764387  0.33732756  0.91103533     0.77500
C2707       C  0.64765460  0.41626913  0.91237110     0.77400
C2708       C  0.61156216  0.33797030  0.83845542     0.77300
O2709       O  0.53272994  0.24524742  0.79260402    -0.71800
O2710       O  0.97448428  0.21796316  0.73696133    -0.72000
O2711       O  0.53188610  0.21749977  0.73702654    -0.71900
O2712       O  0.97489635  0.24523304  0.79276444    -0.71900
O2713       O  0.97432244  0.28549471  0.76841214    -0.71800
O2714       O  0.53322043  0.25848782  0.71432982    -0.71900
O2715       O  0.97525350  0.25823013  0.71267597    -0.71800
O2716       O  0.53153153  0.28623423  0.76987466    -0.72000
V2717       V  0.50349927  0.23234384  0.76453868     1.35200
V2718       V  0.50358883  0.27124947  0.74165551     1.35200
C2719       C  0.54276157  0.26997764  0.78982044     0.77400
C2720       C  0.96430000  0.23400059  0.71599763     0.77500
C2721       C  0.54326066  0.23377983  0.71726749     0.77400
C2722       C  0.96386002  0.26931466  0.78893438     0.77300
C2723       C  0.88926314  0.26059460  0.80919724     0.80200
N2724       N  0.91651127  0.25518060  0.80161446    -0.78100
C2725       C  0.93646799  0.27568910  0.80356107     0.82600
N2726       N  0.92918207  0.30211374  0.81399888    -0.78100
C2727       C  0.90169477  0.30763198  0.82213181     0.82700
N2728       N  0.88184584  0.28691573  0.81915680    -0.79800
C2729       C  0.61715021  0.26389317  0.81324559     0.80200
N2730       N  0.62397790  0.29073078  0.82164615    -0.78100
C2731       C  0.60385706  0.31115244  0.82261158     0.82600
N2732       N  0.57655500  0.30469799  0.81401569    -0.78100
C2733       C  0.56979714  0.27757488  0.80518329     0.82700
N2734       N  0.59010511  0.25739222  0.80542942    -0.79800
O2735       O  0.97499765  0.49429488  0.71061120    -0.71800
O2736       O  0.53132745  0.46494575  0.76631425    -0.72000
O2737       O  0.97399254  0.46448311  0.76445577    -0.71900
O2738       O  0.53293301  0.49449471  0.71273144    -0.71900
O2739       O  0.53209113  0.03413494  0.73927550    -0.71800
O2740       O  0.97282816  0.00431706  0.79058588    -0.71900
O2741       O  0.53055391  0.00458445  0.79290202    -0.71800
O2742       O  0.97470121  0.03411301  0.73681999    -0.72000
V2743       V  0.50326403  0.48040409  0.73889976     1.35200
V2744       V  0.50250765  0.01842276  0.76451500     1.35200
C2745       C  0.96456715  0.01873712  0.71485156     0.77400
C2746       C  0.54149343  0.48048467  0.78810819     0.77500
C2747       C  0.96269084  0.47979240  0.78566677     0.77400
C2748       C  0.54343197  0.01878701  0.71811951     0.77300
C2749       C  0.61658641  0.48816866  0.80638361     0.80200
N2750       N  0.58935748  0.49374927  0.79907842    -0.78100
C2751       C  0.56901363  0.47392350  0.80251658     0.82600
N2752       N  0.57595081  0.44803118  0.81438800    -0.78100
C2753       C  0.60352940  0.44251458  0.82260714     0.82700
N2754       N  0.62375061  0.46255335  0.81799185    -0.79800
C2755       C  0.88822066  0.48618967  0.80857991     0.80200
N2756       N  0.91498929  0.49203469  0.79963203    -0.78100
C2757       C  0.93539912  0.47200031  0.80029700     0.82600
N2758       N  0.92900973  0.44550502  0.81121318    -0.78100
C2759       C  0.90182393  0.43961933  0.82081477     0.82700
N2760       N  0.88162155  0.45997304  0.81878588    -0.79800
O2761       O  0.72204576  0.24330946  0.96095348    -0.71800
O2762       O  0.78159768  0.21487239  0.51301484    -0.72000
O2763       O  0.72426186  0.21409062  0.51460193    -0.71900
O2764       O  0.77985861  0.24352811  0.95924853    -0.71900
O2765       O  0.78088113  0.28319587  0.98572624    -0.71800
O2766       O  0.72361392  0.25408813  0.54042446    -0.71900
O2767       O  0.78144631  0.25428966  0.53993502    -0.71800
O2768       O  0.72360318  0.28356462  0.98621151    -0.72000
V2769       V  0.75192409  0.22961344  0.98758629     1.35200
V2770       V  0.75228506  0.26823989  0.51292941     1.35200
C2771       C  0.71224574  0.26806989  0.96512748     0.77400
C2772       C  0.79219982  0.23013626  0.53490023     0.77500
C2773       C  0.71364894  0.22940030  0.53620268     0.77400
C2774       C  0.79062025  0.26782150  0.96358200     0.77300
C2775       C  0.86186510  0.26005359  0.92997312     0.80200
N2776       N  0.83602129  0.25475474  0.94227535    -0.78100
C2777       C  0.81657440  0.27549447  0.94622515     0.82600
N2778       N  0.82275357  0.30237129  0.93663062    -0.78100
C2779       C  0.84877879  0.30783531  0.92366303     0.82700
N2780       N  0.86805541  0.28669763  0.92083622    -0.79800
C2781       C  0.63770427  0.26475507  0.93940594     0.80200
N2782       N  0.63321195  0.29107418  0.92827467    -0.78100
C2783       C  0.65443767  0.31034377  0.92688055     0.82600
N2784       N  0.68095985  0.30326860  0.93768408    -0.78100
C2785       C  0.68557805  0.27666249  0.94934420     0.82700
N2786       N  0.66396177  0.25777416  0.94975815    -0.79800
O2787       O  0.91368990  0.15532190  0.64007762    -0.71800
O2788       O  0.88422212  0.09573570  0.58786064    -0.72000
O2789       O  0.88374041  0.15355959  0.58599806    -0.71900
O2790       O  0.91413585  0.09802699  0.64162226    -0.71900
O2791       O  0.87431410  0.09800410  0.66737119    -0.71800
O2792       O  0.84415364  0.15420894  0.61217631    -0.71900
O2793       O  0.84437520  0.09683541  0.61356988    -0.71800
O2794       O  0.87409653  0.15585147  0.66629037    -0.72000
V2795       V  0.89808889  0.12571140  0.61426260     1.35200
V2796       V  0.86008926  0.12625337  0.63948688     1.35200
C2797       C  0.89833449  0.16643211  0.66130770     0.77400
C2798       C  0.85996303  0.08520397  0.59293039     0.77500
C2799       C  0.85939239  0.16422707  0.59037068     0.77400
C2800       C  0.89866867  0.08739700  0.66279959     0.77300
O2801       O  0.72517730  0.03264588  0.52436540    -0.71800
O2802       O  0.78199106  0.00597104  0.96585182    -0.72000
O2803       O  0.72417098  0.00626624  0.96690855    -0.71900
O2804       O  0.78250142  0.03265101  0.52272703    -0.71900
O2805       O  0.78326107  0.49123236  0.54439993    -0.71800
O2806       O  0.72467327  0.46494647  0.98894329    -0.71900
O2807       O  0.78186708  0.46467944  0.98789879    -0.71800
O2808       O  0.72521157  0.49110546  0.54571372    -0.72000
V2809       V  0.75348662  0.01826782  0.99507591     1.35200
V2810       V  0.75366391  0.47930147  0.51623265     1.35200
C2811       C  0.71484873  0.01577305  0.54436250     0.77400
C2812       C  0.79219455  0.48120464  0.96763901     0.77500
C2813       C  0.71379192  0.48169501  0.96921616     0.77400
C2814       C  0.79355090  0.01589946  0.54230969     0.77300
C2815       C  0.64008102  0.48902790  0.94268331     0.80200
N2816       N  0.63445541  0.46294437  0.93061966    -0.78100
C2817       C  0.65484554  0.44276976  0.92909934     0.82600
N2818       N  0.68141438  0.44852599  0.94049105    -0.78100
C2819       C  0.68712477  0.47475127  0.95285197     0.82700
N2820       N  0.66655823  0.49470828  0.95340696    -0.79800
C2821       C  0.86435473  0.48736533  0.93545813     0.80200
N2822       N  0.83857703  0.49349964  0.94783913    -0.78100
C2823       C  0.81799097  0.47354212  0.94966704     0.82600
N2824       N  0.82308449  0.44677963  0.93814699    -0.78100
C2825       C  0.84905629  0.44065238  0.92533681     0.82700
N2826       N  0.86927914  0.46088833  0.92461290    -0.79800
O2827       O  0.63565124  0.15510570  0.67262933    -0.71800
O2828       O  0.66591857  0.09669474  0.61962812    -0.72000
O2829       O  0.66502477  0.15424490  0.61798880    -0.71900
O2830       O  0.63629146  0.09735763  0.67359797    -0.71900
O2831       O  0.59603956  0.09722419  0.64834355    -0.71800
O2832       O  0.62532381  0.15210127  0.59178464    -0.71900
O2833       O  0.62562627  0.09446589  0.59455157    -0.71800
O2834       O  0.59598331  0.15421260  0.64624329    -0.72000
V2835       V  0.64989845  0.12588235  0.64559802     1.35200
V2836       V  0.61163890  0.12458548  0.62058905     1.35200
C2837       C  0.61120370  0.16528017  0.66781611     0.77400
C2838       C  0.65019967  0.08448972  0.59935704     0.77500
C2839       C  0.64946173  0.16339295  0.59578833     0.77400
C2840       C  0.61174444  0.08683370  0.66949810     0.77300
C2841       C  0.64374271  0.00897332  0.57990617     0.80200
N2842       N  0.63805966  0.03585105  0.58892491    -0.78100
C2843       C  0.65769503  0.05653619  0.58598120     0.82600
N2844       N  0.68348852  0.05033375  0.57279879    -0.78100
C2845       C  0.68922713  0.02316714  0.56304649     0.82700
N2846       N  0.66929205  0.00267345  0.56698993    -0.79800
C2847       C  0.86648511  0.01001111  0.57241411     0.80200
N2848       N  0.84017326  0.00327718  0.56185088    -0.78100
C2849       C  0.81993740  0.02351635  0.55924159     0.82600
N2850       N  0.82601829  0.05077738  0.56822990    -0.78100
C2851       C  0.85255121  0.05740315  0.57922340     0.82700
N2852       N  0.87260955  0.03700556  0.58072367    -0.79800
C2853       C  0.86574707  0.23720083  0.56269718     0.80200
N2854       N  0.87178950  0.21115205  0.57359846    -0.78100
C2855       C  0.85165287  0.19068113  0.57408695     0.82600
N2856       N  0.82502371  0.19626151  0.56243426    -0.78100
C2857       C  0.81912118  0.22263958  0.55085970     0.82700
N2858       N  0.83947906  0.24290236  0.55165597    -0.79800
C2859       C  0.63924143  0.23331764  0.56032228     0.80200
N2860       N  0.66528061  0.23970226  0.54931379    -0.78100
C2861       C  0.68705662  0.22122555  0.55193026     0.82600
N2862       N  0.68282233  0.19568388  0.56641627    -0.78100
C2863       C  0.65638308  0.18927285  0.57783330     0.82700
N2864       N  0.63500754  0.20810221  0.57430635    -0.79800
C2865       C  0.61706530  0.01212001  0.69055681     0.80200
N2866       N  0.62355783  0.03901600  0.68274287    -0.78100
C2867       C  0.60402930  0.05990453  0.68450588     0.82600
N2868       N  0.57720468  0.05386051  0.69486654    -0.78100
C2869       C  0.57061756  0.02674715  0.70331575     0.82700
N2870       N  0.59050839  0.00620327  0.70055283    -0.79800
C2871       C  0.89220623  0.01246596  0.68334100     0.80200
N2872       N  0.91838852  0.00644955  0.69449549    -0.78100
C2873       C  0.93842703  0.02679114  0.69791937     0.82600
N2874       N  0.93244724  0.05393043  0.68902285    -0.78100
C2875       C  0.90606207  0.06009212  0.67726504     0.82700
N2876       N  0.88628708  0.03935330  0.67488811    -0.79800
C2877       C  0.89232711  0.24145641  0.68303126     0.80200
N2878       N  0.91829263  0.24727401  0.69534028    -0.78100
C2879       C  0.93803273  0.22662274  0.69868981     0.82600
N2880       N  0.93195167  0.19964739  0.68870112    -0.78100
C2881       C  0.90586770  0.19382153  0.67591685     0.82700
N2882       N  0.88640176  0.21468608  0.67352736    -0.79800
C2883       C  0.61607347  0.24055103  0.68774288     0.80200
N2884       N  0.58958870  0.24661221  0.69795615    -0.78100
C2885       C  0.56994867  0.22593818  0.70138942     0.82600
N2886       N  0.57664742  0.19859889  0.69333791    -0.78100
C2887       C  0.60338776  0.19246149  0.68276082     0.82700
N2888       N  0.62275847  0.21345405  0.68050027    -0.79800
N2889       N  0.50463923  0.41687262  0.57372009    -0.36600
N2890       N  0.54790994  0.37312510  0.57014062    -0.57200
N2891       N  0.50382242  0.33071678  0.56153080    -0.36600
N2892       N  0.96057336  0.37408367  0.56953927    -0.57200
C2893       C  0.52748253  0.43119717  0.58468364     0.27000
C2894       C  0.98147737  0.43176664  0.58239798     0.27000
C2895       C  0.52676591  0.31387306  0.56475041     0.27000
C2896       C  0.98055834  0.31462701  0.56657216     0.27000
C2897       C  0.56462123  0.39634284  0.56961314     0.35600
C2898       C  0.56445709  0.35096627  0.56179004     0.35600
C2899       C  0.94502045  0.39748413  0.56443844     0.35600
C2900       C  0.94434168  0.35205637  0.56012403     0.35600
C2901       C  0.51874679  0.45552899  0.60052794    -0.21900
C2902       C  0.98960474  0.45591224  0.59901976    -0.21900
C2903       C  0.51767210  0.28647537  0.57088395    -0.21900
C2904       C  0.98874894  0.28719050  0.57297249    -0.21900
C2905       C  0.59197217  0.38889275  0.56107201    -0.23000
C2906       C  0.59201196  0.36015566  0.55676565    -0.23000
C2907       C  0.91876372  0.39031991  0.55178003    -0.23000
C2908       C  0.91828570  0.36140602  0.54919759    -0.23000
C2909       C  0.55597905  0.42386359  0.57880747    -0.18300
C2910       C  0.95339987  0.42490424  0.57381413    -0.18300
C2911       C  0.95208816  0.32354902  0.56344409    -0.18300
C2912       C  0.55549702  0.32237431  0.56106884    -0.18300
H2913       H  0.53201468  0.47148860  0.61170294     0.14600
H2914       H  0.97597063  0.47218957  0.60879126     0.14600
H2915       H  0.53009510  0.26746322  0.57323268     0.14600
H2916       H  0.97533130  0.26920440  0.57784257     0.14600
H2917       H  0.61023301  0.40257418  0.55884262     0.12900
H2918       H  0.61047772  0.34761877  0.55103637     0.12900
H2919       H  0.90160137  0.40440493  0.54557169     0.12900
H2920       H  0.90076321  0.34869587  0.54045880     0.12900
H2921       H  0.50485369  0.39902278  0.55913238     0.26100
H2922       H  0.50401286  0.35166808  0.55459057     0.26100
N2923       N  0.75387161  0.41941397  0.66733937    -0.36600
N2924       N  0.79673494  0.37641931  0.66688720    -0.57200
N2925       N  0.75368094  0.33261440  0.66539361    -0.36600
N2926       N  0.71092815  0.37572085  0.66995480    -0.57200
C2927       C  0.77714877  0.43345711  0.67740303     0.27000
C2928       C  0.73130669  0.43297592  0.67968065     0.27000
C2929       C  0.77697093  0.31858593  0.67502031     0.27000
C2930       C  0.73097200  0.31819318  0.67595029     0.27000
C2931       C  0.81195513  0.39921732  0.65840435     0.35600
C2932       C  0.81200313  0.35364851  0.65806428     0.35600
C2933       C  0.69540025  0.39864349  0.66281733     0.35600
C2934       C  0.69513155  0.35313138  0.66142627     0.35600
C2935       C  0.76941459  0.45607619  0.69661120    -0.21900
C2936       C  0.74025308  0.45575715  0.69813533    -0.21900
C2937       C  0.76906974  0.29494381  0.69205140    -0.21900
C2938       C  0.73984511  0.29468053  0.69262378    -0.21900
C2939       C  0.83679009  0.39099157  0.64367478    -0.23000
C2940       C  0.83692978  0.36191126  0.64361456    -0.23000
C2941       C  0.66986682  0.39069812  0.64923342    -0.23000
C2942       C  0.66949616  0.36164452  0.64856117    -0.23000
C2943       C  0.80485067  0.42692128  0.66770943    -0.18300
C2944       C  0.70304525  0.42618906  0.67221866    -0.18300
C2945       C  0.70266882  0.32529953  0.66894456    -0.18300
C2946       C  0.80487436  0.32593790  0.66666682    -0.18300
H2947       H  0.78339156  0.47119133  0.70803907     0.14600
H2948       H  0.72712075  0.47064120  0.71101362     0.14600
H2949       H  0.78290676  0.27940208  0.70261840     0.14600
H2950       H  0.72666223  0.27893591  0.70377801     0.14600
H2951       H  0.85300084  0.40462340  0.63433867     0.12900
H2952       H  0.85340728  0.34835921  0.63433642     0.12900
H2953       H  0.65339865  0.40455095  0.64098746     0.12900
H2954       H  0.65230571  0.34834902  0.64009073     0.12900
H2955       H  0.75330907  0.40263899  0.65104076     0.26100
H2956       H  0.75328849  0.35013376  0.65059244     0.26100
N2957       N  0.70848329  0.12466031  0.79991181    -0.36600
N2958       N  0.75140508  0.16743340  0.80231790    -0.57200
N2959       N  0.79478710  0.12362405  0.80246200    -0.36600
N2960       N  0.75179995  0.08089888  0.79550579    -0.57200
C2961       C  0.69334785  0.14828921  0.79444904     0.27000
C2962       C  0.69382034  0.10275142  0.78735822     0.27000
C2963       C  0.80926784  0.14653785  0.79270579     0.27000
C2964       C  0.80965375  0.10058042  0.79330171     0.27000
C2965       C  0.72908883  0.18212000  0.81365162     0.35600
C2966       C  0.77475599  0.18198609  0.81105717     0.35600
C2967       C  0.72825558  0.06568710  0.80102357     0.35600
C2968       C  0.77370692  0.06532799  0.80613095     0.35600
C2969       C  0.66871908  0.14143356  0.77798478    -0.21900
C2970       C  0.66900753  0.11250021  0.77351448    -0.21900
C2971       C  0.83350342  0.13789585  0.77669443    -0.21900
C2972       C  0.83390341  0.10876991  0.77742109    -0.21900
C2973       C  0.73824847  0.20611977  0.82986613    -0.23000
C2974       C  0.76735021  0.20601959  0.82824384    -0.23000
C2975       C  0.73511870  0.04025680  0.81516527    -0.23000
C2976       C  0.76407082  0.04018259  0.81877575    -0.23000
C2977       C  0.70073827  0.17529292  0.80628177    -0.18300
C2978       C  0.70093607  0.07416427  0.79177561    -0.18300
C2979       C  0.80218916  0.07261112  0.80081050    -0.13500
C2980       C  0.80222921  0.17474519  0.80089684    -0.18300
H2981       H  0.65207891  0.15568045  0.77058839     0.14600
H2982       H  0.65253851  0.09996612  0.76219593     0.14600
H2983       H  0.84953262  0.15118894  0.76618301     0.14600
H2984       H  0.85012820  0.09519402  0.76746282     0.14600
H2985       H  0.72532402  0.22220451  0.84114697     0.12900
H2986       H  0.78140106  0.22197835  0.83810147     0.12900
H2987       H  0.72080074  0.02355965  0.82210968     0.12900
H2988       H  0.77663094  0.02328732  0.82869411     0.12900
H2989       H  0.72669293  0.12331741  0.81386007     0.26100
H2990       H  0.77678474  0.12365077  0.81673259     0.26100
N2991       N  0.50134482  0.16865238  0.92926725    -0.36600
N2992       N  0.54468127  0.12605595  0.93933017    -0.57200
N2993       N  0.50175171  0.08252835  0.93397043    -0.36600
N2994       N  0.95851713  0.12509131  0.92766860    -0.57200
C2995       C  0.52288195  0.18390273  0.94191519     0.27000
C2996       C  0.97725318  0.18332359  0.93450843     0.27000
C2997       C  0.52415814  0.06859242  0.94607663     0.27000
C2998       C  0.97822655  0.06840591  0.94274436     0.27000
C2999       C  0.56062446  0.14893095  0.93283085     0.35600
C3000       C  0.56093331  0.10326106  0.93294250     0.35600
C3001       C  0.94375486  0.14691659  0.91582951     0.35600
C3002       C  0.94369111  0.10158029  0.92030963     0.35600
C3003       C  0.51239923  0.20857718  0.95550751    -0.21900
C3004       C  0.98346943  0.20816663  0.95092508    -0.21900
C3005       C  0.51490272  0.04538063  0.96294965    -0.21900
C3006       C  0.98576555  0.04531408  0.96095505    -0.21900
C3007       C  0.58717290  0.14073402  0.92220756    -0.23000
C3008       C  0.58733988  0.11166733  0.92214514    -0.23000
C3009       C  0.91943821  0.13728927  0.90056432    -0.23000
C3010       C  0.91941025  0.10837320  0.90339259    -0.23000
C3011       C  0.55182821  0.17691418  0.93893358    -0.18300
C3012       C  0.95024672  0.17530237  0.92297637    -0.18300
C3013       C  0.95053674  0.07481903  0.93228840    -0.18300
C3014       C  0.55263113  0.07530733  0.93966217    -0.18300
H3015       H  0.52439465  0.22523715  0.96719226     0.14600
H3016       H  0.96876533  0.22443801  0.95844791     0.14600
H3017       H  0.52784487  0.02992746  0.97499406     0.14600
H3018       H  0.97177922  0.02976445  0.97120220     0.14600
H3019       H  0.60461511  0.15426762  0.91551544     0.12900
H3020       H  0.60497401  0.09833162  0.91533607     0.12900
H3021       H  0.90302648  0.14985297  0.88956478     0.12900
H3022       H  0.90297700  0.09413476  0.89499347     0.12900
H3023       H  0.50322320  0.15008771  0.91574454     0.26100
H3024       H  0.50274145  0.09952412  0.91843162     0.26100
C3025       C  0.63728621  0.26314181  0.68268625    -0.00200
C3026       C  0.65907558  0.25807858  0.66061131    -0.12100
C3027       C  0.68015752  0.27817660  0.65529778     0.02100
C3028       C  0.67998690  0.30383123  0.67257290    -0.00300
C3029       C  0.65798208  0.30926827  0.69407863    -0.12000
C3030       C  0.63656749  0.28940484  0.69907866     0.01900
H3031       H  0.65955166  0.23843295  0.64708715     0.14900
H3032       H  0.65776675  0.32906002  0.70735031     0.14900
C3033       C  0.61474465  0.29653695  0.72172026     0.36600
C3034       C  0.70139397  0.27220638  0.63157135     0.36500
N3035       N  0.59723898  0.30256730  0.73971965    -0.43800
N3036       N  0.71841458  0.26737840  0.61257385    -0.43800
C3037       C  0.87055723  0.26384860  0.67907725    -0.00200
C3038       C  0.84845725  0.25902442  0.65707973    -0.12100
C3039       C  0.82723215  0.27909504  0.65229042     0.02100
C3040       C  0.82770059  0.30461679  0.66976474    -0.00300
C3041       C  0.84956381  0.30961521  0.69173024    -0.12000
C3042       C  0.87082733  0.28955775  0.69666343     0.01900
H3043       H  0.84784217  0.23962284  0.64312703     0.14900
H3044       H  0.84964030  0.32909945  0.70557821     0.14900
C3045       C  0.89173290  0.29574121  0.72084123     0.36600
C3046       C  0.80528402  0.27313006  0.62917511     0.36500
N3047       N  0.90835006  0.30105000  0.74027916    -0.43800
N3048       N  0.78752480  0.26835407  0.61086410    -0.43800
C3049       C  0.87028082  0.49002385  0.67975217    -0.00200
C3050       C  0.84649594  0.49546890  0.66051140    -0.12100
C3051       C  0.82542267  0.47508617  0.65568793     0.02100
C3052       C  0.82743747  0.44874964  0.67081310    -0.00300
C3053       C  0.85090457  0.44326105  0.69024854    -0.12000
C3054       C  0.87235105  0.46334490  0.69464237     0.01900
H3055       H  0.84458000  0.51548358  0.64839870     0.14900
H3056       H  0.85238209  0.42312702  0.70221849     0.14900
C3057       C  0.89580099  0.95567730  0.71488651     0.36600
C3058       C  0.80247662  0.48140812  0.63422033     0.36500
N3059       N  0.91458604  0.94909057  0.73090598    -0.43800
N3060       N  0.78419421  0.48663715  0.61690830    -0.43800
C3061       C  0.63861164  0.48952011  0.68645583    -0.00200
C3062       C  0.66196233  0.49491473  0.66672036    -0.12100
C3063       C  0.68255645  0.47435351  0.66107324     0.02100
C3064       C  0.68078240  0.44807529  0.67628809    -0.00300
C3065       C  0.65773048  0.44258476  0.69617597    -0.12000
C3066       C  0.63646791  0.46271449  0.70096064     0.01900
H3067       H  0.66374673  0.01492953  0.65464619     0.14900
H3068       H  0.65632474  0.42236502  0.70796655     0.14900
C3069       C  0.61302879  0.45494314  0.72096771     0.36600
C3070       C  0.70440186  0.48014507  0.63817728     0.36500
N3071       N  0.59421381  0.44823936  0.73673691    -0.43800
N3072       N  0.72178292  0.48467659  0.61963652    -0.43800
C3073       C  0.61653262  0.25478541  0.55929870    -0.00200
C3074       C  0.61483902  0.27319144  0.53339858    -0.12100
C3075       C  0.59435595  0.29463210  0.53272448     0.02100
C3076       C  0.57760610  0.29995224  0.55989413    -0.00300
C3077       C  0.58052978  0.28244063  0.58624316    -0.12000
C3078       C  0.59747732  0.25846770  0.58469469     0.01900
H3079       H  0.62874012  0.27012520  0.51321024     0.14900
H3080       H  0.56731837  0.28598768  0.60695068     0.14900
C3081       C  0.59164747  0.23639862  0.60686236     0.36600
C3082       C  0.59064572  0.31052911  0.50395067     0.36500
N3083       N  0.58526004  0.21795641  0.62305716    -0.43800
N3084       N  0.58529982  0.32058494  0.97870740    -0.43800
C3085       C  0.88767590  0.25917613  0.56255385    -0.00200
C3086       C  0.88630040  0.28127699  0.58488758    -0.12100
C3087       C  0.90756561  0.30188372  0.58627759     0.02100
C3088       C  0.92925004  0.30181777  0.56322435    -0.00300
C3089       C  0.93003376  0.28006666  0.54034113    -0.12000
C3090       C  0.91028336  0.25811421  0.54088999     0.01900
H3091       H  0.86923364  0.28182276  0.60196372     0.14900
H3092       H  0.94698002  0.27954630  0.52300215     0.14900
C3093       C  0.91479211  0.23392637  0.52049683     0.36600
C3094       C  0.90777696  0.32174775  0.61256836     0.36500
N3095       N  0.91933660  0.21414933  0.50500081    -0.43800
N3096       N  0.90843610  0.33744961  0.63382605    -0.43800
C3097       C  0.93162641  0.44740729  0.57502756    -0.00200
C3098       C  0.93368889  0.46993694  0.55389234    -0.12100
C3099       C  0.91280896  0.49079788  0.55316821     0.02100
C3100       C  0.88891985  0.48859869  0.57300272    -0.00300
C3101       C  0.88692208  0.46613894  0.59429877    -0.12000
C3102       C  0.90858990  0.44607235  0.59616069     0.01900
H3103       H  0.95161514  0.47112385  0.53790039     0.14900
H3104       H  0.86882702  0.46462273  0.60988687     0.14900
C3105       C  0.90764459  0.42491118  0.62056040     0.36600
C3106       C  0.91615986  0.01401268  0.53161260     0.36500
N3107       N  0.90769274  0.40797861  0.64016689    -0.43800
N3108       N  0.91909501  0.03274982  0.51453980    -0.43800
C3109       C  0.62090109  0.48773235  0.58065384    -0.00200
C3110       C  0.62268471  0.46480049  0.60142980    -0.12100
C3111       C  0.60055704  0.44504624  0.60302163     0.02100
C3112       C  0.57777395  0.44655120  0.58137616    -0.00300
C3113       C  0.57571815  0.46979141  0.56119392    -0.12000
C3114       C  0.59646801  0.49084573  0.56160469     0.01900
H3115       H  0.64085023  0.46271776  0.61690692     0.14900
H3116       H  0.55766347  0.47159612  0.54531280     0.14900
C3117       C  0.59183310  0.51571310  0.54280718     0.36600
C3118       C  0.60055872  0.42413576  0.62771080     0.36500
N3119       N  0.58609451  0.03617341  0.02810901    -0.43800
N3120       N  0.59952545  0.40740560  0.64750607    -0.43800
C3121       C  0.88692318  0.00932583  0.93436968    -0.00200
C3122       C  0.88201047  0.03546636  0.94965982    -0.12100
C3123       C  0.90240195  0.05689017  0.94967055     0.02100
C3124       C  0.92828836  0.05262527  0.93368044    -0.00300
C3125       C  0.93345781  0.02660638  0.91870014    -0.12000
C3126       C  0.91331729  0.00500623  0.91890975     0.01900
H3127       H  0.86230271  0.03921544  0.96217187     0.14900
H3128       H  0.95338498  0.02327951  0.90640633     0.14900
C3129       C  0.92090447  0.97897769  0.90290258     0.36600
C3130       C  0.89658210  0.08263756  0.96722372     0.36500
N3131       N  0.92757057  0.45826038  0.89014168    -0.43800
N3132       N  0.89132003  0.10488399  0.47906096    -0.43800
C3133       C  0.57436799  0.05255793  0.94115281    -0.00200
C3134       C  0.59832995  0.05659782  0.96040322    -0.12100
C3135       C  0.61999200  0.03650944  0.96140095     0.02100
C3136       C  0.61755212  0.01107557  0.94340363    -0.00300
C3137       C  0.59300509  0.00676772  0.92483892    -0.12000
C3138       C  0.57172325  0.02726459  0.92328704     0.01900
H3139       H  0.60025009  0.07581737  0.97456371     0.14900
H3140       H  0.59078765  0.48775742  0.91040587     0.14900
C3141       C  0.54858994  0.02281304  0.90114765     0.36600
C3142       C  0.64421496  0.04305142  0.98120321     0.36500
N3143       N  0.53032143  0.01945855  0.88306467    -0.43800
N3144       N  0.66358008  0.04880254  0.99693623    -0.43800
C3145       C  0.57330375  0.19998638  0.94071759    -0.00200
C3146       C  0.57024382  0.22313960  0.92053442    -0.12100
C3147       C  0.58996872  0.24518048  0.92076666     0.02100
C3148       C  0.61442542  0.24356447  0.94031218    -0.00300
C3149       C  0.61702478  0.22063992  0.96111827    -0.12000
C3150       C  0.59646419  0.19934853  0.96199730     0.01900
H3151       H  0.55214945  0.22406408  0.90458646     0.14900
H3152       H  0.63498679  0.21949048  0.97720810     0.14900
C3153       C  0.59928417  0.17749808  0.98545473     0.36600
C3154       C  0.58389677  0.26917128  0.90109206     0.36500
N3155       N  0.60158193  0.16005468  0.00432374    -0.43800
N3156       N  0.57834570  0.28861972  0.88591549    -0.43800
C3157       C  0.88334864  0.23720495  0.92686789    -0.00200
C3158       C  0.90729445  0.24184691  0.90770845    -0.12100
C3159       C  0.92902104  0.22183432  0.90552349     0.02100
C3160       C  0.92699317  0.19645698  0.92252891    -0.00300
C3161       C  0.90276249  0.19125846  0.94065783    -0.12000
C3162       C  0.88107609  0.21117761  0.94308924     0.01900
H3163       H  0.90925277  0.26126347  0.89446179     0.14900
H3164       H  0.90126264  0.17182462  0.95400209     0.14900
C3165       C  0.85776059  0.20445121  0.96382520     0.36600
C3166       C  0.95304090  0.22762170  0.88542956     0.36500
N3167       N  0.83928590  0.19872411  0.98056909    -0.43800
N3168       N  0.97225819  0.23200488  0.86920663    -0.43800
C3169       C  0.82452333  0.05037459  0.80187554    -0.00200
C3170       C  0.84858738  0.05492615  0.82098305    -0.12100
C3171       C  0.86992974  0.03453254  0.82280416     0.02100
C3172       C  0.86650847  0.00834295  0.80691269    -0.00300
C3173       C  0.84270280  0.00380006  0.78756513    -0.12000
C3174       C  0.82225538  0.02492864  0.78408100     0.01900
H3175       H  0.85087548  0.07464793  0.83414311     0.14900
H3176       H  0.84064112  0.48414404  0.77420442     0.14900
C3177       C  0.79977189  0.02058085  0.76119580     0.36600
C3178       C  0.89544159  0.04129211  0.84031792     0.36500
N3179       N  0.78152080  0.01758150  0.74304220    -0.43800
N3180       N  0.91623714  0.04704893  0.85351916    -0.43800
C3181       C  0.67791656  0.05305610  0.79244209    -0.00200
C3182       C  0.65743117  0.05609423  0.81608046    -0.12100
C3183       C  0.63706280  0.03530605  0.82049218     0.02100
C3184       C  0.63785193  0.01029262  0.80208029    -0.00300
C3185       C  0.65781539  0.00749748  0.77765390    -0.12000
C3186       C  0.67750013  0.02907415  0.77224488     0.01900
H3187       H  0.65757470  0.07471849  0.83137776     0.14900
H3188       H  0.65760177  0.98883219  0.76247536     0.14900
C3189       C  0.69641055  0.02676356  0.74548226     0.36600
C3190       C  0.61550254  0.04057240  0.84386468     0.36500
N3191       N  0.71131669  0.02528103  0.72377427    -0.43800
N3192       N  0.59822543  0.04597361  0.86229790    -0.43800
C3193       C  0.67883115  0.19777435  0.80853459    -0.00200
C3194       C  0.68331414  0.22305988  0.79215855    -0.12100
C3195       C  0.66392523  0.24523209  0.79426596     0.02100
C3196       C  0.63893174  0.24183214  0.81201097    -0.00300
C3197       C  0.63412119  0.21648878  0.82805843    -0.12000
C3198       C  0.65405815  0.19465168  0.82693322     0.01900
H3199       H  0.70222844  0.22554480  0.77787570     0.14900
H3200       H  0.61497976  0.21398801  0.84196927     0.14900
C3201       C  0.64889812  0.16964283  0.84539707     0.36600
C3202       C  0.67004674  0.27103341  0.77765979     0.36500
N3203       N  0.64462956  0.14962829  0.86018581    -0.43800
N3204       N  0.67528289  0.29179255  0.76466502    -0.43800
C3205       C  0.86777014  0.23814071  0.80592539    -0.00200
C3206       C  0.84203497  0.24430873  0.79072856    -0.12100
C3207       C  0.82111475  0.22352588  0.78694762     0.02100
C3208       C  0.82483362  0.19678480  0.80109430    -0.00300
C3209       C  0.85068035  0.19075284  0.81610171    -0.12000
C3210       C  0.87260111  0.21048900  0.81696151     0.01900
H3211       H  0.83873173  0.26508409  0.78072882     0.14900
H3212       H  0.85403415  0.17019981  0.82662774     0.14900
C3213       C  0.89993233  0.20106949  0.82803242     0.36600
C3214       C  0.79662257  0.22984482  0.76758156     0.36500
N3215       N  0.92177881  0.19239724  0.83576415    -0.43800
N3216       N  0.77706847  0.23488727  0.75196407    -0.43800
O3217       O  0.84004761  0.84676804  0.38889714    -0.71800
O3218       O  0.86911703  0.90250686  0.33266792    -0.72000
O3219       O  0.86868069  0.84454877  0.33436751    -0.71900
O3220       O  0.84023849  0.90399437  0.38750055    -0.71900
O3221       O  0.88030771  0.90431308  0.41311794    -0.71800
O3222       O  0.90918021  0.84606072  0.35908335    -0.71900
O3223       O  0.90915746  0.90321648  0.35828679    -0.71800
O3224       O  0.88057714  0.84662147  0.41359312    -0.72000
V3225       V  0.85537380  0.87449697  0.36120253     1.35200
V3226       V  0.89392790  0.87508683  0.38567116     1.35200
C3227       C  0.85604205  0.83616753  0.40972041     0.77400
C3228       C  0.89360399  0.91316321  0.33662473     0.77500
C3229       C  0.89328342  0.83445140  0.33855031     0.77400
C3230       C  0.85589507  0.91481469  0.40880941     0.77300
O3231       O  0.59551415  0.90587544  0.35965964    -0.71800
O3232       O  0.62318957  0.84897638  0.41510644    -0.72000
O3233       O  0.62287189  0.90666734  0.41520724    -0.71900
O3234       O  0.59567316  0.84882401  0.35957527    -0.71900
O3235       O  0.63623291  0.84878833  0.33528623    -0.71800
O3236       O  0.66397019  0.90599334  0.39206367    -0.71900
O3237       O  0.66379479  0.84851293  0.39095305    -0.71800
O3238       O  0.63652687  0.90674818  0.33639516    -0.72000
V3239       V  0.61022032  0.87758374  0.38705957     1.35200
V3240       V  0.64930203  0.87752789  0.36399012     1.35200
C3241       C  0.61176162  0.91683233  0.33944370     0.77400
C3242       C  0.64753265  0.83806245  0.41155263     0.77500
C3243       C  0.64747340  0.91698952  0.41228312     0.77400
C3244       C  0.61176470  0.83816143  0.33880493     0.77300
O3245       O  0.53302524  0.74520438  0.29348348    -0.71800
O3246       O  0.97449758  0.71760653  0.23831356    -0.72000
O3247       O  0.53191688  0.71665671  0.23841852    -0.71900
O3248       O  0.97514828  0.74565795  0.29367847    -0.71900
O3249       O  0.97459616  0.78545555  0.26840501    -0.71800
O3250       O  0.53379086  0.75741308  0.21526152    -0.71900
O3251       O  0.97583959  0.75740471  0.21312063    -0.71800
O3252       O  0.53186558  0.78597074  0.27027438    -0.72000
V3253       V  0.50364338  0.73214096  0.26565530     1.35200
V3254       V  0.50402675  0.77071264  0.24210276     1.35200
C3255       C  0.54311327  0.76988345  0.29038294     0.77400
C3256       C  0.96462188  0.73335257  0.21688209     0.77500
C3257       C  0.54360558  0.73265130  0.21860075     0.77400
C3258       C  0.96409790  0.76965790  0.28928991     0.77300
C3259       C  0.88954011  0.76070007  0.30969515     0.80200
N3260       N  0.91675509  0.75551500  0.30183680    -0.78100
C3261       C  0.93659380  0.77613100  0.30368675     0.82600
N3262       N  0.92921986  0.80248709  0.31433288    -0.78100
C3263       C  0.90173756  0.80778541  0.32278074     0.82700
N3264       N  0.88200753  0.78693295  0.31986252    -0.79800
C3265       C  0.61789682  0.76434352  0.31251368     0.80200
N3266       N  0.62452182  0.79115018  0.32127531    -0.78100
C3267       C  0.60416814  0.81132763  0.32289071     0.82600
N3268       N  0.57683747  0.80466753  0.31461057    -0.78100
C3269       C  0.57026169  0.77758025  0.30547513     0.82700
N3270       N  0.59081079  0.75763848  0.30505004    -0.79800
O3271       O  0.97520043  0.99332625  0.20959575    -0.71800
O3272       O  0.53129430  0.96453486  0.26602930    -0.72000
O3273       O  0.97393980  0.96388068  0.26361773    -0.71900
O3274       O  0.53324924  0.99380467  0.21227405    -0.71900
O3275       O  0.53195749  0.53361340  0.23844923    -0.71800
O3276       O  0.97262712  0.50381565  0.28954602    -0.71900
O3277       O  0.53025090  0.50436670  0.29222912    -0.71800
O3278       O  0.97455184  0.53322661  0.23564506    -0.72000
V3279       V  0.50337778  0.97973529  0.23822661     1.35200
V3280       V  0.50231781  0.51788539  0.26357630     1.35200
C3281       C  0.96454177  0.51768283  0.21376034     0.77400
C3282       C  0.54126794  0.98027180  0.28776330     0.77500
C3283       C  0.96253097  0.97928243  0.28468010     0.77400
C3284       C  0.54362152  0.51815907  0.21762549     0.77300
C3285       C  0.61600607  0.98877518  0.30718075     0.80200
N3286       N  0.58877695  0.99407714  0.29963943    -0.78100
C3287       C  0.56866639  0.97394597  0.30254933     0.82600
N3288       N  0.57582612  0.94801293  0.31412769    -0.78100
C3289       C  0.60339821  0.94275041  0.32256620     0.82700
N3290       N  0.62340898  0.96308717  0.31843050    -0.79800
C3291       C  0.88821301  0.98604288  0.30804644     0.80200
N3292       N  0.91495204  0.99177283  0.29890163    -0.78100
C3293       C  0.93523228  0.97158860  0.29928815     0.82600
N3294       N  0.92875925  0.94510504  0.31013504    -0.78100
C3295       C  0.90159609  0.93935707  0.31986658     0.82700
N3296       N  0.88152481  0.95982762  0.31812298    -0.79800
O3297       O  0.72194078  0.74414001  0.46089956    -0.71800
O3298       O  0.78150315  0.71441742  0.01367825    -0.72000
O3299       O  0.72420119  0.71377185  0.01504489    -0.71900
O3300       O  0.77974870  0.74454389  0.45905944    -0.71900
O3301       O  0.78069868  0.78394103  0.48606579    -0.71800
O3302       O  0.72348699  0.75402636  0.04034872    -0.71900
O3303       O  0.78132032  0.75410361  0.04008723    -0.71800
O3304       O  0.72344694  0.78412772  0.48670923    -0.72000
V3305       V  0.75189998  0.73025681  0.48725303     1.35200
V3306       V  0.75231307  0.76785149  0.01274724     1.35200
C3307       C  0.71208037  0.76881553  0.46546525     0.77400
C3308       C  0.79199170  0.72984800  0.03549024     0.77500
C3309       C  0.71353456  0.72928046  0.03642587     0.77400
C3310       C  0.79048059  0.76879888  0.46376741     0.77300
C3311       C  0.86213057  0.76152626  0.43129911     0.80200
N3312       N  0.83617906  0.75603346  0.44318681    -0.78100
C3313       C  0.81654075  0.77663007  0.44680687     0.82600
N3314       N  0.82262291  0.80353994  0.43729834    -0.78100
C3315       C  0.84877140  0.80918682  0.42478435     0.82700
N3316       N  0.86823743  0.78820765  0.42227862    -0.79800
C3317       C  0.63733945  0.76575838  0.44053345     0.80200
N3318       N  0.63290798  0.79205311  0.42930883    -0.78100
C3319       C  0.65422923  0.81119589  0.42762121     0.82600
N3320       N  0.68078206  0.80403262  0.43820414    -0.78100
C3321       C  0.68533472  0.77747019  0.44997058     0.82700
N3322       N  0.66363603  0.75868960  0.45068000    -0.79800
O3323       O  0.91334308  0.65469889  0.14150951    -0.71800
O3324       O  0.88348516  0.59580882  0.08874832    -0.72000
O3325       O  0.88298902  0.65357081  0.08772228    -0.71900
O3326       O  0.91365706  0.59745584  0.14225759    -0.71900
O3327       O  0.87412295  0.59739029  0.16856825    -0.71800
O3328       O  0.84345298  0.65381553  0.11400061    -0.71900
O3329       O  0.84390696  0.59633309  0.11498491    -0.71800
O3330       O  0.87383369  0.65530224  0.16787574    -0.72000
V3331       V  0.89749869  0.62543655  0.11545824     1.35200
V3332       V  0.85966558  0.62574791  0.14099976     1.35200
C3333       C  0.89812101  0.66579717  0.16284366     0.77400
C3334       C  0.85938373  0.58502778  0.09397968     0.77500
C3335       C  0.85860115  0.66407814  0.09225649     0.77400
C3336       C  0.89835723  0.58670737  0.16349367     0.77300
O3337       O  0.72517255  0.53211274  0.02377268    -0.71800
O3338       O  0.78156945  0.50699751  0.46562653    -0.72000
O3339       O  0.72371740  0.50732947  0.46715932    -0.71900
O3340       O  0.78253873  0.53219114  0.02261695    -0.71900
O3341       O  0.78337690  0.99090426  0.04459952    -0.71800
O3342       O  0.72447675  0.96574711  0.48853225    -0.71900
O3343       O  0.78171212  0.96557360  0.48734517    -0.71800
O3344       O  0.72524926  0.99084256  0.04576030    -0.72000
V3345       V  0.75325698  0.51903456  0.49523650     1.35200
V3346       V  0.75379583  0.97873584  0.01654061     1.35200
C3347       C  0.71476093  0.51543228  0.04392021     0.77400
C3348       C  0.79188133  0.98226719  0.46714906     0.77500
C3349       C  0.71343983  0.98269229  0.46911423     0.77400
C3350       C  0.79361097  0.51558650  0.04233648     0.77300
C3351       C  0.63992537  0.99006087  0.44157049     0.80200
N3352       N  0.63431521  0.96388983  0.42976751    -0.78100
C3353       C  0.65463401  0.94363236  0.42875599     0.82600
N3354       N  0.68111975  0.94940929  0.44040214    -0.78100
C3355       C  0.68683714  0.97573536  0.45250997     0.82700
N3356       N  0.66633469  0.99578004  0.45254127    -0.79800
C3357       C  0.86354547  0.98893321  0.43354385     0.80200
N3358       N  0.83788083  0.99492175  0.44633644    -0.78100
C3359       C  0.81754303  0.97475486  0.44879356     0.82600
N3360       N  0.82279297  0.94793150  0.43752929    -0.78100
C3361       C  0.84863842  0.94194932  0.42431133     0.82700
N3362       N  0.86860484  0.96239651  0.42295450    -0.79800
O3363       O  0.63640327  0.65422158  0.17297011    -0.71800
O3364       O  0.66588778  0.59619780  0.11882863    -0.72000
O3365       O  0.66505171  0.65380020  0.11771029    -0.71900
O3366       O  0.63703849  0.59654234  0.17337969    -0.71900
O3367       O  0.59646695  0.59659242  0.14878562    -0.71800
O3368       O  0.62494392  0.65200716  0.09228965    -0.71900
O3369       O  0.62527456  0.59425238  0.09440123    -0.71800
O3370       O  0.59632672  0.65352171  0.14737859    -0.72000
V3371       V  0.65027445  0.62523726  0.14535776     1.35200
V3372       V  0.61166465  0.62417888  0.12103757     1.35200
C3373       C  0.61179522  0.66429750  0.16891319     0.77400
C3374       C  0.64988188  0.58415923  0.09870765     0.77500
C3375       C  0.64919428  0.66318806  0.09589023     0.77400
C3376       C  0.61239681  0.58612280  0.16967897     0.77300
C3377       C  0.64311820  0.50879280  0.07822483     0.80200
N3378       N  0.63744058  0.53566455  0.08734754    -0.78100
C3379       C  0.65721651  0.55629357  0.08485562     0.82600
N3380       N  0.68314812  0.55002309  0.07203218    -0.78100
C3381       C  0.68888148  0.52288603  0.06216270     0.82700
N3382       N  0.66881588  0.50245351  0.06569611    -0.79800
C3383       C  0.86679797  0.51022620  0.07183214     0.80200
N3384       N  0.84051949  0.50333591  0.06128318    -0.78100
C3385       C  0.82000047  0.52334227  0.05919721     0.82600
N3386       N  0.82572279  0.55052328  0.06880139    -0.78100
C3387       C  0.85219480  0.55729841  0.07988164     0.82700
N3388       N  0.87255787  0.53714422  0.08080097    -0.79800
C3389       C  0.86511879  0.73701276  0.06459459     0.80200
N3390       N  0.87095608  0.71107504  0.07589879    -0.78100
C3391       C  0.85081604  0.69061568  0.07618615     0.82600
N3392       N  0.82437755  0.69608282  0.06391372    -0.78100
C3393       C  0.81868544  0.72238141  0.05195443     0.82700
N3394       N  0.83905691  0.74262647  0.05292441    -0.79800
C3395       C  0.63897249  0.73305432  0.05998095     0.80200
N3396       N  0.66508369  0.73954120  0.04927237    -0.78100
C3397       C  0.68690138  0.72115493  0.05216437     0.82600
N3398       N  0.68261038  0.69560338  0.06664484    -0.78100
C3399       C  0.65609250  0.68907667  0.07779759     0.82700
N3400       N  0.63466905  0.70782232  0.07395516    -0.79800
C3401       C  0.61756500  0.51149009  0.19101591     0.80200
N3402       N  0.62419191  0.53839346  0.18336567    -0.78100
C3403       C  0.60466443  0.55929255  0.18491667     0.82600
N3404       N  0.57772487  0.55323865  0.19492335    -0.78100
C3405       C  0.57101257  0.52612086  0.20324818     0.82700
N3406       N  0.59090415  0.50556169  0.20066953    -0.79800
C3407       C  0.89212037  0.51141536  0.18217312     0.80200
N3408       N  0.91840683  0.50523487  0.19300748    -0.78100
C3409       C  0.93838036  0.52562559  0.19682005     0.82600
N3410       N  0.93220703  0.55289680  0.18870507    -0.78100
C3411       C  0.90576321  0.55920041  0.17731832     0.82700
N3412       N  0.88605479  0.53845215  0.17448367    -0.79800
C3413       C  0.89302085  0.74116880  0.18305281     0.80200
N3414       N  0.91898741  0.74682980  0.19543264    -0.78100
C3415       C  0.93838512  0.72597068  0.19948672     0.82600
N3416       N  0.93196135  0.69890093  0.19010285    -0.78100
C3417       C  0.90585784  0.69321401  0.17725753     0.82700
N3418       N  0.88674645  0.71431465  0.17417828    -0.79800
C3419       C  0.61711429  0.73891949  0.19135408     0.80200
N3420       N  0.59048614  0.74509517  0.20093846    -0.78100
C3421       C  0.57054406  0.72460121  0.20338744     0.82600
N3422       N  0.57706718  0.69732810  0.19479307    -0.78100
C3423       C  0.60399175  0.69107748  0.18482160     0.82700
N3424       N  0.62365666  0.71187154  0.18374153    -0.79800
N3425       N  0.50430552  0.91627708  0.07322110    -0.36600
N3426       N  0.54750522  0.87258531  0.06867283    -0.57200
N3427       N  0.50338579  0.83015180  0.06143573    -0.36600
N3428       N  0.96023150  0.87354700  0.07026090    -0.57200
C3429       C  0.52730721  0.93039082  0.08407673     0.27000
C3430       C  0.98130636  0.93099556  0.08269757     0.27000
C3431       C  0.52640312  0.81338424  0.06440446     0.27000
C3432       C  0.98025561  0.81411146  0.06725629     0.27000
C3433       C  0.56412045  0.89583584  0.06752323     0.35600
C3434       C  0.56387973  0.85045310  0.05983664     0.35600
C3435       C  0.94463201  0.89692884  0.06516013     0.35600
C3436       C  0.94391688  0.85146176  0.06121540     0.35600
C3437       C  0.51883994  0.95435098  0.10080340    -0.21900
C3438       C  0.98968443  0.95475353  0.09985843    -0.21900
C3439       C  0.51750724  0.78607935  0.07130744    -0.21900
C3440       C  0.98859970  0.78676905  0.07393760    -0.21900
C3441       C  0.59124299  0.88844954  0.05805445    -0.23000
C3442       C  0.59124454  0.85969085  0.05379283    -0.23000
C3443       C  0.91826861  0.88968714  0.05284165    -0.23000
C3444       C  0.91774946  0.86074855  0.05055400    -0.23000
C3445       C  0.55566119  0.92326831  0.07722348    -0.18300
C3446       C  0.95315197  0.92439348  0.07426923    -0.18300
C3447       C  0.95174605  0.82297497  0.06458387    -0.18300
C3448       C  0.55501093  0.82185179  0.05980837    -0.18300
H3449       H  0.53229695  0.97006344  0.11213590     0.14600
H3450       H  0.97619530  0.97080137  0.11034441     0.14600
H3451       H  0.53006962  0.76716572  0.07378722     0.14600
H3452       H  0.97528105  0.76885137  0.07940578     0.14600
H3453       H  0.60939352  0.90218718  0.05525568     0.12900
H3454       H  0.60956204  0.84716045  0.04746424     0.12900
H3455       H  0.90105634  0.90372753  0.04668613     0.12900
H3456       H  0.90014411  0.84798576  0.04213383     0.12900
H3457       H  0.50428146  0.89872535  0.05807366     0.26100
H3458       H  0.50338603  0.85105090  0.05407811     0.26100
N3459       N  0.75355715  0.91853253  0.16615788    -0.36600
N3460       N  0.79669767  0.87572421  0.16666899    -0.57200
N3461       N  0.75392183  0.83168588  0.16675119    -0.36600
N3462       N  0.71087744  0.87462581  0.17074113    -0.57200
C3463       C  0.77679449  0.93308669  0.17537194     0.27000
C3464       C  0.73098388  0.93240033  0.17800893     0.27000
C3465       C  0.77740793  0.81782967  0.17609564     0.27000
C3466       C  0.73142091  0.81723194  0.17776328     0.27000
C3467       C  0.81157905  0.89843310  0.15722137     0.35600
C3468       C  0.81196521  0.85289951  0.15799333     0.35600
C3469       C  0.69520107  0.89727423  0.16290250     0.35600
C3470       C  0.69520474  0.85174296  0.16291403     0.35600
C3471       C  0.76900848  0.95642394  0.19345907    -0.21900
C3472       C  0.73988172  0.95596302  0.19521152    -0.21900
C3473       C  0.76984918  0.79423024  0.19338867    -0.21900
C3474       C  0.74063649  0.79385778  0.19447511    -0.21900
C3475       C  0.83616184  0.89009012  0.14208558    -0.23000
C3476       C  0.83653909  0.86103910  0.14272840    -0.23000
C3477       C  0.66970689  0.88885641  0.14964318    -0.23000
C3478       C  0.66950325  0.85980472  0.14983464    -0.23000
C3479       C  0.80449484  0.92628699  0.16591426    -0.18300
C3480       C  0.70272278  0.92512857  0.17119893    -0.18300
C3481       C  0.70300097  0.82408519  0.17098238    -0.18300
C3482       C  0.80515465  0.82527803  0.16720454    -0.18300
H3483       H  0.78288358  0.97216938  0.20395329     0.14600
H3484       H  0.72673787  0.97130899  0.20736929     0.14600
H3485       H  0.78389778  0.77877701  0.20376897     0.14600
H3486       H  0.72768827  0.77808232  0.20591176     0.14600
H3487       H  0.85195528  0.90365922  0.13183496     0.12900
H3488       H  0.85290282  0.84743468  0.13326428     0.12900
H3489       H  0.65324451  0.90243871  0.14089320     0.12900
H3490       H  0.65242298  0.84622136  0.14167200     0.12900
H3491       H  0.75300074  0.90112175  0.15073067     0.26100
H3492       H  0.75325213  0.84908282  0.15178660     0.26100
N3493       N  0.70879824  0.62502625  0.29937303    -0.36600
N3494       N  0.75217460  0.66747877  0.30138647    -0.57200
N3495       N  0.79508180  0.62328970  0.30281975    -0.36600
N3496       N  0.75159953  0.58084606  0.29636577    -0.57200
C3497       C  0.69399637  0.64870453  0.29314728     0.27000
C3498       C  0.69390826  0.60303034  0.28737853     0.27000
C3499       C  0.80990191  0.64598814  0.29304291     0.27000
C3500       C  0.80968613  0.60004268  0.29383192     0.27000
C3501       C  0.72985821  0.68240805  0.31230373     0.35600
C3502       C  0.77553971  0.68172961  0.31070542     0.35600
C3503       C  0.72792481  0.56588414  0.30206836     0.35600
C3504       C  0.77340515  0.56516986  0.30704553     0.35600
C3505       C  0.66937083  0.64179636  0.27670207    -0.21900
C3506       C  0.66929861  0.61277318  0.27307802    -0.21900
C3507       C  0.83409990  0.63702211  0.27721368    -0.21900
C3508       C  0.83409198  0.60789806  0.27800129    -0.21900
C3509       C  0.73902322  0.70624366  0.32881256    -0.23000
C3510       C  0.76813923  0.70577841  0.32785692    -0.23000
C3511       C  0.73460600  0.54050023  0.31642699    -0.23000
C3512       C  0.76358109  0.54018583  0.31991557    -0.23000
C3513       C  0.70154597  0.67580284  0.30456175    -0.18300
C3514       C  0.70067817  0.57447704  0.29262056    -0.18300
C3515       C  0.80193774  0.57219400  0.30156293    -0.13500
C3516       C  0.80306647  0.67428405  0.30096150    -0.18300
H3517       H  0.65293021  0.65607767  0.26884961     0.14600
H3518       H  0.65271704  0.60020213  0.26202441     0.14600
H3519       H  0.85033405  0.65008893  0.26673819     0.14600
H3520       H  0.85018645  0.59410280  0.26815558     0.14600
H3521       H  0.72610810  0.72241606  0.33994241     0.12900
H3522       H  0.78222014  0.72152101  0.33809956     0.12900
H3523       H  0.72016247  0.52396290  0.32352370     0.12900
H3524       H  0.77602727  0.52323615  0.32989626     0.12900
H3525       H  0.72689558  0.62377185  0.31351718     0.26100
H3526       H  0.77701557  0.62359821  0.31699198     0.26100
N3527       N  0.50123754  0.66967484  0.42943423    -0.36600
N3528       N  0.54441607  0.62684053  0.43870604    -0.57200
N3529       N  0.50137834  0.58349461  0.43233104    -0.36600
N3530       N  0.95832021  0.62632159  0.42671516    -0.57200
C3531       C  0.52276357  0.68460981  0.44257888     0.27000
C3532       C  0.97716124  0.68428780  0.43499118     0.27000
C3533       C  0.52370442  0.56933063  0.44431669     0.27000
C3534       C  0.97775934  0.56937679  0.44087944     0.27000
C3535       C  0.56043496  0.64977304  0.43267278     0.35600
C3536       C  0.56060540  0.60409117  0.43192696     0.35600
C3537       C  0.94368451  0.64836580  0.41521085     0.35600
C3538       C  0.94348032  0.60297104  0.41878899     0.35600
C3539       C  0.51229455  0.70899076  0.45684418    -0.21900
C3540       C  0.98336322  0.70874429  0.45213824    -0.21900
C3541       C  0.51431099  0.54598319  0.46085225    -0.21900
C3542       C  0.98515609  0.54606988  0.45881606    -0.21900
C3543       C  0.58696307  0.64165335  0.42190000    -0.23000
C3544       C  0.58705802  0.61257728  0.42135298    -0.23000
C3545       C  0.91943513  0.63904385  0.39957311    -0.23000
C3546       C  0.91933250  0.61007870  0.40180012    -0.23000
C3547       C  0.55169846  0.67767883  0.43936744    -0.18300
C3548       C  0.95021065  0.67659668  0.42304177    -0.18300
C3549       C  0.95011057  0.57606131  0.43046151    -0.18300
C3550       C  0.55222657  0.57607105  0.43817788    -0.18300
H3551       H  0.52429689  0.72537271  0.46901407     0.14600
H3552       H  0.96867397  0.72489673  0.46001473     0.14600
H3553       H  0.52716189  0.53036809  0.47275389     0.14600
H3554       H  0.97107088  0.53050319  0.46886639     0.14600
H3555       H  0.60445351  0.65523163  0.41546861     0.12900
H3556       H  0.60467058  0.59927329  0.41439014     0.12900
H3557       H  0.90310045  0.65182115  0.38874637     0.12900
H3558       H  0.90292318  0.59599752  0.39299711     0.12900
H3559       H  0.50311717  0.65147170  0.41540080     0.26100
H3560       H  0.50247291  0.60063470  0.41709229     0.26100
C3561       C  0.63835557  0.76146965  0.18629693    -0.00200
C3562       C  0.66043817  0.75607721  0.16469681    -0.12100
C3563       C  0.68118927  0.77632790  0.15874272     0.02100
C3564       C  0.68052750  0.80246032  0.17507550    -0.00300
C3565       C  0.65823817  0.80820452  0.19612336    -0.12000
C3566       C  0.63705120  0.78820914  0.20161114     0.01900
H3567       H  0.66132173  0.73609710  0.15184831     0.14900
H3568       H  0.65758601  0.82837441  0.20862225     0.14900
C3569       C  0.61471336  0.79584357  0.22339685     0.36600
C3570       C  0.70248162  0.76999119  0.13518615     0.36500
N3571       N  0.59675280  0.80233457  0.24061487    -0.43800
N3572       N  0.71946645  0.76475684  0.11627613    -0.43800
C3573       C  0.87143809  0.76369877  0.17880908    -0.00200
C3574       C  0.84885857  0.75848154  0.15753483    -0.12100
C3575       C  0.82753237  0.77845878  0.15285250     0.02100
C3576       C  0.82817472  0.80413056  0.17001774    -0.00300
C3577       C  0.85061494  0.80961354  0.19110489    -0.12000
C3578       C  0.87220099  0.78981518  0.19562022     0.01900
H3579       H  0.84798961  0.73887690  0.14396587     0.14900
H3580       H  0.85098087  0.82934253  0.20449718     0.14900
C3581       C  0.89406662  0.79678959  0.21846138     0.36600
C3582       C  0.80548701  0.77239000  0.12988284     0.36500
N3583       N  0.91149848  0.80270247  0.23676968    -0.43800
N3584       N  0.78774392  0.76759510  0.11155778    -0.43800
C3585       C  0.87017186  0.98905242  0.17821188    -0.00200
C3586       C  0.84668660  0.99449614  0.15848755    -0.12100
C3587       C  0.82552370  0.97420539  0.15353555     0.02100
C3588       C  0.82722637  0.94796648  0.16890941    -0.00300
C3589       C  0.85039854  0.94250054  0.18878942    -0.12000
C3590       C  0.87183550  0.96253390  0.19345562     0.01900
H3591       H  0.84504950  0.01445263  0.14620780     0.14900
H3592       H  0.85156217  0.92248684  0.20105021     0.14900
C3593       C  0.89471637  0.45512689  0.21461463     0.36600
C3594       C  0.80261512  0.98058053  0.13202415     0.36500
N3595       N  0.91302026  0.44876273  0.23142160    -0.43800
N3596       N  0.78417308  0.98574745  0.11489677    -0.43800
C3597       C  0.63888604  0.98878678  0.18647542    -0.00200
C3598       C  0.66152162  0.99375895  0.16560569    -0.12100
C3599       C  0.68178267  0.97298729  0.15942841     0.02100
C3600       C  0.68033080  0.94689940  0.17510466    -0.00300
C3601       C  0.65789877  0.94178853  0.19596980    -0.12000
C3602       C  0.63704634  0.96219411  0.20146472     0.01900
H3603       H  0.66300603  0.51362527  0.15315884     0.14900
H3604       H  0.65679891  0.92175920  0.20819676     0.14900
C3605       C  0.61441812  0.95500303  0.22283614     0.36600
C3606       C  0.70320628  0.97849073  0.13594008     0.36500
N3607       N  0.59625199  0.94870714  0.23971392    -0.43800
N3608       N  0.72040606  0.98274442  0.11710206    -0.43800
C3609       C  0.61626184  0.75448997  0.05878848    -0.00200
C3610       C  0.61383807  0.77202533  0.03220049    -0.12100
C3611       C  0.59329207  0.79341619  0.03133716     0.02100
C3612       C  0.57714653  0.79947737  0.05877214    -0.00300
C3613       C  0.58076362  0.78282241  0.08570744    -0.12000
C3614       C  0.59799393  0.75903839  0.08471693     0.01900
H3615       H  0.62725411  0.76834694  0.01172661     0.14900
H3616       H  0.56803056  0.78697689  0.10665760     0.14900
C3617       C  0.59366081  0.73810765  0.10859747     0.36600
C3618       C  0.58886526  0.80849366  0.00212824     0.36500
N3619       N  0.58855844  0.72044684  0.12635213    -0.43800
N3620       N  0.58763183  0.82326282  0.48086475    -0.43800
C3621       C  0.88717290  0.75882989  0.06432613    -0.00200
C3622       C  0.88607817  0.78090356  0.08669386    -0.12100
C3623       C  0.90747096  0.80135836  0.08797637     0.02100
C3624       C  0.92898084  0.80120250  0.06473339    -0.00300
C3625       C  0.92953957  0.77943587  0.04184814    -0.12000
C3626       C  0.90962046  0.75763790  0.04246785     0.01900
H3627       H  0.86906074  0.78162796  0.10378301     0.14900
H3628       H  0.94634235  0.77886290  0.02433761     0.14900
C3629       C  0.91362112  0.73358169  0.02172143     0.36600
C3630       C  0.90791882  0.82120082  0.11428869     0.36500
N3631       N  0.91767475  0.71393328  0.00583991    -0.43800
N3632       N  0.90869323  0.83686002  0.13558294    -0.43800
C3633       C  0.93160633  0.94717691  0.07531803    -0.00200
C3634       C  0.93454391  0.97023361  0.05499379    -0.12100
C3635       C  0.91390774  0.99136930  0.05412996     0.02100
C3636       C  0.88928130  0.98881679  0.07276309    -0.00300
C3637       C  0.88646857  0.96586576  0.09326901    -0.12000
C3638       C  0.90799135  0.94570612  0.09559877     0.01900
H3639       H  0.95297980  0.97164278  0.03976992     0.14900
H3640       H  0.86783100  0.96403759  0.10795954     0.14900
C3641       C  0.90636092  0.92437385  0.11975362     0.36600
C3642       C  0.91829423  0.51517498  0.03361996     0.36500
N3643       N  0.90595495  0.90731362  0.13921093    -0.43800
N3644       N  0.92214171  0.53438076  0.01744614    -0.43800
C3645       C  0.62033080  0.98745432  0.07900118    -0.00200
C3646       C  0.62254955  0.96415895  0.09923486    -0.12100
C3647       C  0.60058465  0.94421110  0.10075784     0.02100
C3648       C  0.57745426  0.94597158  0.07963110    -0.00300
C3649       C  0.57494500  0.96955289  0.06001472    -0.12000
C3650       C  0.59560811  0.99071099  0.06044297     0.01900
H3651       H  0.64093107  0.96194231  0.11436861     0.14900
H3652       H  0.55661981  0.97152830  0.04455582     0.14900
C3653       C  0.59063253  0.01578017  0.04210135     0.36600
C3654       C  0.60100069  0.92283270  0.12492944     0.36500
N3655       N  0.58754062  0.53596200  0.52846019    -0.43800
N3656       N  0.60003895  0.90565848  0.14424177    -0.43800
C3657       C  0.88600981  0.51099080  0.43207097    -0.00200
C3658       C  0.88115525  0.53718013  0.44727905    -0.12100
C3659       C  0.90169764  0.55847771  0.44744616     0.02100
C3660       C  0.92765455  0.55405397  0.43162760    -0.00300
C3661       C  0.93266851  0.52806771  0.41653683    -0.12000
C3662       C  0.91238796  0.50660374  0.41659262     0.01900
H3663       H  0.86143178  0.54101508  0.45972693     0.14900
H3664       H  0.95260791  0.52464484  0.40429826     0.14900
C3665       C  0.91986338  0.48061330  0.40045755     0.36600
C3666       C  0.89597677  0.58422644  0.46504396     0.36500
N3667       N  0.92646433  0.95994359  0.38759492    -0.43800
N3668       N  0.89183232  0.60327598  0.98120473    -0.43800
C3669       C  0.57399259  0.55334894  0.43968635    -0.00200
C3670       C  0.59758240  0.55716728  0.45957129    -0.12100
C3671       C  0.61927035  0.53710820  0.46072185     0.02100
C3672       C  0.61737021  0.51207610  0.44197843    -0.00300
C3673       C  0.59323662  0.50800639  0.42267100    -0.12000
C3674       C  0.57175037  0.52831440  0.42129171     0.01900
H3675       H  0.59912584  0.57613067  0.47421907     0.14900
H3676       H  0.59142963  0.98926211  0.40773246     0.14900
C3677       C  0.54861549  0.52379300  0.39916753     0.36600
C3678       C  0.64280140  0.54303552  0.48177607     0.36500
N3679       N  0.53030935  0.52035952  0.38114863    -0.43800
N3680       N  0.66156362  0.54817696  0.49864811    -0.43800
C3681       C  0.57312937  0.70079031  0.44141360    -0.00200
C3682       C  0.56975482  0.72430628  0.42180934    -0.12100
C3683       C  0.58940258  0.74641588  0.42222039     0.02100
C3684       C  0.61403084  0.74459631  0.44147595    -0.00300
C3685       C  0.61690129  0.72135242  0.46179431    -0.12000
C3686       C  0.59651246  0.69988436  0.46237333     0.01900
H3687       H  0.55152163  0.72541118  0.40607787     0.14900
H3688       H  0.63502720  0.72000287  0.47762901     0.14900
C3689       C  0.59985911  0.67748059  0.48507810     0.36600
C3690       C  0.58319615  0.77056166  0.40280640     0.36500
N3691       N  0.60265037  0.65955738  0.50328829    -0.43800
N3692       N  0.57760279  0.79007138  0.38773626    -0.43800
C3693       C  0.88366775  0.73876319  0.42807168    -0.00200
C3694       C  0.90779267  0.74371166  0.40929504    -0.12100
C3695       C  0.92938976  0.72361048  0.40669984     0.02100
C3696       C  0.92705606  0.69784552  0.42290836    -0.00300
C3697       C  0.90266124  0.69237371  0.44065060    -0.12000
C3698       C  0.88113361  0.71240587  0.44355135     0.01900
H3699       H  0.90997283  0.76340723  0.39661802     0.14900
H3700       H  0.90094752  0.67265211  0.45342430     0.14900
C3701       C  0.85771473  0.70541637  0.46401542     0.36600
C3702       C  0.95357530  0.72969284  0.38696716     0.36500
N3703       N  0.83915325  0.69945937  0.48052974    -0.43800
N3704       N  0.97294716  0.73431458  0.37106212    -0.43800
C3705       C  0.82412585  0.54984243  0.30267031    -0.00200
C3706       C  0.84850163  0.55457214  0.32123841    -0.12100
C3707       C  0.87011969  0.53444370  0.32238091     0.02100
C3708       C  0.86653692  0.50819309  0.30667716    -0.00300
C3709       C  0.84234922  0.50340737  0.28802332    -0.12000
C3710       C  0.82171504  0.52438007  0.28494259     0.01900
H3711       H  0.85093123  0.57435280  0.33425565     0.14900
H3712       H  0.84016623  0.98370829  0.27475300     0.14900
C3713       C  0.79905118  0.51990360  0.26230901     0.36600
C3714       C  0.89612878  0.54169458  0.33868897     0.36500
N3715       N  0.78076061  0.51667363  0.24425000    -0.43800
N3716       N  0.91729447  0.54798073  0.35080516    -0.43800
C3717       C  0.67749473  0.55352140  0.29322209    -0.00200
C3718       C  0.65637826  0.55713767  0.31606770    -0.12100
C3719       C  0.63572052  0.53656202  0.32023067     0.02100
C3720       C  0.63713828  0.51101046  0.30280231    -0.00300
C3721       C  0.65765476  0.50771983  0.27904088    -0.12000
C3722       C  0.67733290  0.52925067  0.27348357     0.01900
H3723       H  0.65612468  0.57612697  0.33077558     0.14900
H3724       H  0.65776761  0.48876178  0.26432644     0.14900
C3725       C  0.69627573  0.52675123  0.24677600     0.36600
C3726       C  0.61304419  0.54278777  0.34194190     0.36500
N3727       N  0.71110231  0.52518248  0.22500808    -0.43800
N3728       N  0.59481349  0.54909723  0.35880712    -0.43800
C3729       C  0.67968629  0.69832514  0.30693061    -0.00200
C3730       C  0.68428689  0.72385084  0.29104252    -0.12100
C3731       C  0.66495898  0.74607576  0.29356158     0.02100
C3732       C  0.63981412  0.74239724  0.31099174    -0.00300
C3733       C  0.63496704  0.71684958  0.32660516    -0.12000
C3734       C  0.65492624  0.69506431  0.32530423     0.01900
H3735       H  0.70329494  0.72652653  0.27696123     0.14900
H3736       H  0.61580324  0.71417645  0.34043403     0.14900
C3737       C  0.64989890  0.67003303  0.34377920     0.36600
C3738       C  0.67144245  0.77229533  0.27797717     0.36500
N3739       N  0.64579212  0.65001873  0.35862464    -0.43800
N3740       N  0.67704154  0.79341099  0.26591255    -0.43800
C3741       C  0.86822365  0.73807612  0.30638192    -0.00200
C3742       C  0.84257148  0.74400696  0.29092243    -0.12100
C3743       C  0.82187656  0.72304235  0.28691831     0.02100
C3744       C  0.82572231  0.69629515  0.30102648    -0.00300
C3745       C  0.85156821  0.69042393  0.31614362    -0.12000
C3746       C  0.87325431  0.71044370  0.31740156     0.01900
H3747       H  0.83914482  0.76476791  0.28093735     0.14900
H3748       H  0.85503391  0.66988243  0.32664908     0.14900
C3749       C  0.90052981  0.70146390  0.32912391     0.36600
C3750       C  0.79738324  0.72923977  0.26749987     0.36500
N3751       N  0.92238820  0.69327068  0.33746272    -0.43800
N3752       N  0.77776663  0.73414783  0.25192574    -0.43800
O3753       O  0.84023708  0.84587897  0.88821276    -0.71800
O3754       O  0.86932125  0.90260686  0.83316229    -0.72000
O3755       O  0.86889297  0.84457029  0.83372272    -0.71900
O3756       O  0.84045419  0.90316628  0.88799130    -0.71900
O3757       O  0.88056071  0.90311610  0.91353672    -0.71800
O3758       O  0.90934389  0.84563906  0.85857369    -0.71900
O3759       O  0.90939700  0.90286211  0.85869841    -0.71800
O3760       O  0.88071481  0.84539273  0.91299371    -0.72000
V3761       V  0.85558274  0.87409541  0.86111128     1.35200
V3762       V  0.89412922  0.87429633  0.88559520     1.35200
C3763       C  0.85617931  0.83497493  0.90889229     0.77400
C3764       C  0.89381662  0.91320934  0.83727878     0.77500
C3765       C  0.89341834  0.83429825  0.83790333     0.77400
C3766       C  0.85616490  0.91369628  0.90942974     0.77300
O3767       O  0.59561731  0.90574156  0.85994683    -0.71800
O3768       O  0.62324205  0.84815236  0.91465137    -0.72000
O3769       O  0.62310201  0.90585964  0.91543424    -0.71900
O3770       O  0.59550646  0.84868531  0.85924420    -0.71900
O3771       O  0.63610742  0.84843709  0.83503818    -0.71800
O3772       O  0.66402857  0.90549439  0.89190557    -0.71900
O3773       O  0.66388642  0.84800271  0.89058713    -0.71800
O3774       O  0.63646472  0.90635705  0.83631109    -0.72000
V3775       V  0.61027507  0.87710834  0.88699129     1.35200
V3776       V  0.64929189  0.87709380  0.86378359     1.35200
C3777       C  0.61179169  0.91659805  0.83957424     0.77400
C3778       C  0.64763448  0.83733241  0.91105012     0.77500
C3779       C  0.64764380  0.91627331  0.91239154     0.77400
C3780       C  0.61155365  0.83797932  0.83846832     0.77300
O3781       O  0.53273008  0.74525574  0.79259843    -0.71800
O3782       O  0.97448306  0.71795675  0.73696790    -0.72000
O3783       O  0.53188658  0.71750556  0.73702207    -0.71900
O3784       O  0.97489701  0.74522493  0.79277255    -0.71900
O3785       O  0.97432193  0.78548779  0.76842297    -0.71800
O3786       O  0.53322368  0.75849327  0.71432467    -0.71900
O3787       O  0.97525012  0.75822502  0.71268514    -0.71800
O3788       O  0.53153123  0.78624229  0.76986854    -0.72000
V3789       V  0.50350008  0.73235104  0.76453253     1.35200
V3790       V  0.50359050  0.77125589  0.74164766     1.35200
C3791       C  0.54276052  0.76998661  0.78981581     0.77400
C3792       C  0.96429743  0.73399502  0.71600590     0.77500
C3793       C  0.54326238  0.73378472  0.71726332     0.77400
C3794       C  0.96386079  0.76930725  0.78894554     0.77300
C3795       C  0.88926835  0.76058777  0.80923321     0.80200
N3796       N  0.91651524  0.75517323  0.80164492    -0.78100
C3797       C  0.93647111  0.77568360  0.80357874     0.82600
N3798       N  0.92918550  0.80211083  0.81400975    -0.78100
C3799       C  0.90169940  0.80762980  0.82214797     0.82700
N3800       N  0.88185155  0.78691137  0.81918508    -0.79800
C3801       C  0.61714941  0.76390778  0.81324164     0.80200
N3802       N  0.62397351  0.79074434  0.82164949    -0.78100
C3803       C  0.60385021  0.81116333  0.82261969     0.82600
N3804       N  0.57654893  0.80470758  0.81402117    -0.78100
C3805       C  0.56979472  0.77758528  0.80518130     0.82700
N3806       N  0.59010521  0.75740516  0.80542322    -0.79800
O3807       O  0.97499634  0.99429241  0.71061254    -0.71800
O3808       O  0.53132162  0.96494645  0.76632164    -0.72000
O3809       O  0.97399908  0.96448533  0.76446119    -0.71900
O3810       O  0.53293265  0.99449880  0.71274284    -0.71900
O3811       O  0.53209474  0.53413385  0.73925834    -0.71800
O3812       O  0.97281257  0.50431371  0.79058220    -0.71900
O3813       O  0.53056758  0.50458704  0.79288868    -0.71800
O3814       O  0.97469803  0.53411449  0.73682055    -0.72000
V3815       V  0.50326115  0.98040504  0.73890383     1.35200
V3816       V  0.50251635  0.51842387  0.76450718     1.35200
C3817       C  0.96456812  0.51873956  0.71484897     0.77400
C3818       C  0.54148350  0.98048419  0.78811907     0.77500
C3819       C  0.96270366  0.97979626  0.78567522     0.77400
C3820       C  0.54343268  0.51878401  0.71810211     0.77300
C3821       C  0.61657896  0.98816767  0.80638515     0.80200
N3822       N  0.58934972  0.99374891  0.79908074    -0.78100
C3823       C  0.56900442  0.97392540  0.80252706     0.82600
N3824       N  0.57594060  0.94803539  0.81440512    -0.78100
C3825       C  0.60351928  0.94251881  0.82262321     0.82700
N3826       N  0.62374153  0.96255477  0.81800052    -0.79800
C3827       C  0.88823837  0.98620388  0.80860150     0.80200
N3828       N  0.91500755  0.99204572  0.79965353    -0.78100
C3829       C  0.93541422  0.97200798  0.80031398     0.82600
N3830       N  0.92902089  0.94551204  0.81122604    -0.78100
C3831       C  0.90183462  0.93962946  0.82082887     0.82700
N3832       N  0.88163520  0.95998664  0.81880324    -0.79800
O3833       O  0.72203813  0.74331174  0.96095628    -0.71800
O3834       O  0.78159380  0.71487022  0.51301131    -0.72000
O3835       O  0.72425817  0.71409371  0.51458307    -0.71900
O3836       O  0.77985011  0.74353259  0.95924995    -0.71900
O3837       O  0.78087497  0.78319555  0.98573666    -0.71800
O3838       O  0.72361299  0.75409103  0.54040635    -0.71900
O3839       O  0.78144357  0.75429153  0.53992403    -0.71800
O3840       O  0.72359714  0.78356497  0.98621819    -0.72000
V3841       V  0.75191713  0.72961304  0.98758613     1.35200
V3842       V  0.75228581  0.76824039  0.51291341     1.35200
C3843       C  0.71223931  0.76807236  0.96513270     0.77400
C3844       C  0.79219510  0.73013634  0.53489518     0.77500
C3845       C  0.71364713  0.72940376  0.53618470     0.77400
C3846       C  0.79061235  0.76782508  0.96358775     0.77300
C3847       C  0.86185121  0.76005945  0.92996048     0.80200
N3848       N  0.83601053  0.75476039  0.94227094    -0.78100
C3849       C  0.81656462  0.77550037  0.94622787     0.82600
N3850       N  0.82274134  0.80237771  0.93663202    -0.78100
C3851       C  0.84876359  0.80784155  0.92365643     0.82700
N3852       N  0.86803895  0.78670367  0.92082304    -0.79800
C3853       C  0.63769668  0.76476014  0.93942017     0.80200
N3854       N  0.63320300  0.79107947  0.92829041    -0.78100
C3855       C  0.65442899  0.81034869  0.92689418     0.82600
N3856       N  0.68095229  0.80327299  0.93769394    -0.78100
C3857       C  0.68557131  0.77666646  0.94935215     0.82700
N3858       N  0.66395507  0.75777873  0.94976824    -0.79800
O3859       O  0.91368807  0.65532383  0.64007945    -0.71800
O3860       O  0.88422634  0.59574443  0.58784905    -0.72000
O3861       O  0.88373990  0.65356769  0.58599805    -0.71900
O3862       O  0.91413789  0.59802957  0.64161309    -0.71900
O3863       O  0.87431638  0.59800260  0.66736252    -0.71800
O3864       O  0.84415087  0.65420805  0.61217224    -0.71900
O3865       O  0.84437954  0.59683498  0.61355895    -0.71800
O3866       O  0.87409254  0.65584950  0.66628819    -0.72000
V3867       V  0.89808980  0.62571667  0.61425789     1.35200
V3868       V  0.86008921  0.62625224  0.63948050     1.35200
C3869       C  0.89833107  0.66643081  0.66131005     0.77400
C3870       C  0.85996828  0.58520946  0.59291606     0.77500
C3871       C  0.85938964  0.66423053  0.59036927     0.77400
C3872       C  0.89867172  0.58739766  0.66279006     0.77300
O3873       O  0.72517969  0.53265468  0.52435415    -0.71800
O3874       O  0.78200152  0.50596269  0.96585886    -0.72000
O3875       O  0.72418183  0.50625590  0.96690088    -0.71900
O3876       O  0.78250490  0.53265779  0.52269982    -0.71900
O3877       O  0.78325721  0.99122054  0.54441526    -0.71800
O3878       O  0.72466709  0.96495615  0.98894931    -0.71900
O3879       O  0.78186034  0.96468827  0.98789294    -0.71800
O3880       O  0.72520813  0.99109400  0.54571863    -0.72000
V3881       V  0.75349080  0.51825869  0.99507568     1.35200
V3882       V  0.75366395  0.97929460  0.51623948     1.35200
C3883       C  0.71485135  0.51578401  0.54435360     0.77400
C3884       C  0.79218453  0.98121315  0.96763078     0.77500
C3885       C  0.71378175  0.98170510  0.96922550     0.77400
C3886       C  0.79355632  0.51590975  0.54228524     0.77300
C3887       C  0.64006784  0.98903284  0.94269860     0.80200
N3888       N  0.63444275  0.96294789  0.93063887    -0.78100
C3889       C  0.65483359  0.94277415  0.92911968     0.82600
N3890       N  0.68140289  0.94853291  0.94050815    -0.78100
C3891       C  0.68711292  0.97475956  0.95286556     0.82700
N3892       N  0.66654549  0.99471585  0.95341973    -0.79800
C3893       C  0.86434953  0.98736780  0.93546319     0.80200
N3894       N  0.83857051  0.99350500  0.94783926    -0.78100
C3895       C  0.81797999  0.97355093  0.94965733     0.82600
N3896       N  0.82307062  0.94678926  0.93813304    -0.78100
C3897       C  0.84904330  0.94065986  0.92532662     0.82700
N3898       N  0.86927004  0.96089212  0.92461213    -0.79800
O3899       O  0.63565026  0.65510653  0.67262538    -0.71800
O3900       O  0.66591654  0.59670333  0.61961298    -0.72000
O3901       O  0.66502459  0.65425420  0.61798462    -0.71900
O3902       O  0.63628841  0.59735899  0.67358218    -0.71900
O3903       O  0.59603637  0.59723150  0.64832807    -0.71800
O3904       O  0.62532423  0.65211414  0.59177898    -0.71900
O3905       O  0.62562406  0.59447835  0.59453648    -0.71800
O3906       O  0.59598313  0.65421994  0.64623757    -0.72000
V3907       V  0.64989698  0.62588753  0.64558824     1.35200
V3908       V  0.61163767  0.62459552  0.62057856     1.35200
C3909       C  0.61120323  0.66528269  0.66781372     0.77400
C3910       C  0.65019710  0.58450072  0.59934053     0.77500
C3911       C  0.64946236  0.66340463  0.59578458     0.77400
C3912       C  0.61174070  0.58683707  0.66948051     0.77300
C3913       C  0.64373978  0.50898473  0.57988363     0.80200
N3914       N  0.63805548  0.53586275  0.58890121    -0.78100
C3915       C  0.65769176  0.55654791  0.58596140     0.82600
N3916       N  0.68348732  0.55034513  0.57278417    -0.78100
C3917       C  0.68922722  0.52317853  0.56303310     0.82700
N3918       N  0.66929153  0.50268483  0.56697326    -0.79800
C3919       C  0.86649354  0.51002067  0.57238216     0.80200
N3920       N  0.84018184  0.50328799  0.56181754    -0.78100
C3921       C  0.81994567  0.52352717  0.55921142     0.82600
N3922       N  0.82602574  0.55078690  0.56820524    -0.78100
C3923       C  0.85255845  0.55741144  0.57920061     0.82700
N3924       N  0.87261734  0.53701397  0.58069738    -0.79800
C3925       C  0.86573917  0.73720479  0.56269831     0.80200
N3926       N  0.87178266  0.71115655  0.57359983    -0.78100
C3927       C  0.85164746  0.69068443  0.57408716     0.82600
N3928       N  0.82501841  0.69626288  0.56243276    -0.78100
C3929       C  0.81911484  0.72264083  0.55085827     0.82700
N3930       N  0.83947144  0.74290479  0.55165580    -0.79800
C3931       C  0.63924336  0.73332659  0.56031107     0.80200
N3932       N  0.66528111  0.73970789  0.54929719    -0.78100
C3933       C  0.68705630  0.72123080  0.55191477     0.82600
N3934       N  0.68282298  0.69569194  0.56640724    -0.78100
C3935       C  0.65638488  0.68928442  0.57782997     0.82700
N3936       N  0.63500983  0.70811419  0.57430196    -0.79800
C3937       C  0.61706219  0.51212030  0.69052229     0.80200
N3938       N  0.62355346  0.53901728  0.68271243    -0.78100
C3939       C  0.60402521  0.55990531  0.68448197     0.82600
N3940       N  0.57720176  0.55385983  0.69484561    -0.78100
C3941       C  0.57061538  0.52674496  0.70329062     0.82700
N3942       N  0.59050622  0.50620156  0.70052081    -0.79800
C3943       C  0.89221461  0.51246451  0.68332109     0.80200
N3944       N  0.91839522  0.50645013  0.69448115    -0.78100
C3945       C  0.93843102  0.52679338  0.69791160     0.82600
N3946       N  0.93245032  0.55393289  0.68901657    -0.78100
C3947       C  0.90606661  0.56009250  0.67725320     0.82700
N3948       N  0.88629427  0.53935185  0.67486979    -0.79800
C3949       C  0.89232584  0.74145379  0.68303784     0.80200
N3950       N  0.91829108  0.74727005  0.69534808    -0.78100
C3951       C  0.93802976  0.72661769  0.69869885     0.82600
N3952       N  0.93194779  0.69964268  0.68870951    -0.78100
C3953       C  0.90586380  0.69381815  0.67592442     0.82700
N3954       N  0.88639924  0.71468372  0.67353413    -0.79800
C3955       C  0.61607907  0.74054915  0.68775260     0.80200
N3956       N  0.58959347  0.74661318  0.69796048    -0.78100
C3957       C  0.56995073  0.72594120  0.70138836     0.82600
N3958       N  0.57664731  0.69860161  0.69333564    -0.78100
C3959       C  0.60338872  0.69246179  0.68276376     0.82700
N3960       N  0.62276238  0.71345202  0.68050977    -0.79800
N3961       N  0.50463841  0.91687204  0.57369811    -0.36600
N3962       N  0.54790956  0.87312715  0.57011916    -0.57200
N3963       N  0.50382539  0.83071976  0.56149853    -0.36600
N3964       N  0.96057208  0.87408380  0.56956353    -0.57200
C3965       C  0.52747908  0.93119420  0.58467344     0.27000
C3966       C  0.98148118  0.93176865  0.58241513     0.27000
C3967       C  0.52676966  0.81387786  0.56472599     0.27000
C3968       C  0.98055333  0.81462486  0.56658703     0.27000
C3969       C  0.56461897  0.89634586  0.56959404     0.35600
C3970       C  0.56445676  0.85097194  0.56175780     0.35600
C3971       C  0.94502026  0.89748540  0.56446500     0.35600
C3972       C  0.94433847  0.85205799  0.56014761     0.35600
C3973       C  0.51874005  0.95552191  0.60052311    -0.21900
C3974       C  0.98961190  0.95591749  0.59902907    -0.21900
C3975       C  0.51767804  0.78648224  0.57087316    -0.21900
C3976       C  0.98874200  0.78718529  0.57297519    -0.21900
C3977       C  0.59196877  0.88890030  0.56104344    -0.23000
C3978       C  0.59200966  0.86016426  0.55672719    -0.23000
C3979       C  0.91876245  0.89032333  0.55180783    -0.23000
C3980       C  0.91828258  0.86140989  0.54922331    -0.23000
C3981       C  0.55597621  0.92386254  0.57880039    -0.18300
C3982       C  0.95340153  0.92490516  0.57384007    -0.18300
C3983       C  0.95208344  0.82354952  0.56346215    -0.18300
C3984       C  0.55549932  0.82238008  0.56103867    -0.18300
H3985       H  0.53200562  0.97147881  0.61170664     0.14600
H3986       H  0.97597977  0.97219671  0.60880003     0.14600
H3987       H  0.53010282  0.76747227  0.57323214     0.14600
H3988       H  0.97532340  0.76919804  0.57783686     0.14600
H3989       H  0.61022790  0.90258409  0.55881418     0.12900
H3990       H  0.61047474  0.84762963  0.55098871     0.12900
H3991       H  0.90160085  0.90440961  0.54560050     0.12900
H3992       H  0.90075911  0.84870156  0.54048365     0.12900
H3993       H  0.50485588  0.89902874  0.55910641     0.26100
H3994       H  0.50401481  0.85166470  0.55454881     0.26100
N3995       N  0.75386833  0.91940922  0.66736957    -0.36600
N3996       N  0.79673407  0.87641692  0.66689194    -0.57200
N3997       N  0.75368328  0.83261042  0.66538858    -0.36600
N3998       N  0.71092887  0.87571524  0.66997426    -0.57200
C3999       C  0.77714676  0.93345002  0.67743287     0.27000
C4000       C  0.73130556  0.93296666  0.67972213     0.27000
C4001       C  0.77697438  0.81858130  0.67501095     0.27000
C4002       C  0.73097583  0.81818683  0.67594468     0.27000
C4003       C  0.81195220  0.89921793  0.65841471     0.35600
C4004       C  0.81200320  0.85364910  0.65806142     0.35600
C4005       C  0.69539694  0.89863943  0.66285373     0.35600
C4006       C  0.69513216  0.85312796  0.66143925     0.35600
C4007       C  0.76941582  0.95606229  0.69665236    -0.21900
C4008       C  0.74025466  0.95574221  0.69818371    -0.21900
C4009       C  0.76907515  0.79493635  0.69203846    -0.21900
C4010       C  0.73985075  0.79467189  0.69261289    -0.21900
C4011       C  0.83678685  0.89099731  0.64368095    -0.23000
C4012       C  0.83692826  0.86191682  0.64361207    -0.23000
C4013       C  0.66986062  0.89069758  0.64927461    -0.23000
C4014       C  0.66949261  0.86164421  0.64858692    -0.23000
C4015       C  0.80484668  0.92691900  0.66772932    -0.18300
C4016       C  0.70304322  0.92618215  0.67226341    -0.18300
C4017       C  0.70267201  0.82529422  0.66894510    -0.18300
C4018       C  0.80487716  0.82593641  0.66665829    -0.18300
H4019       H  0.78339527  0.97117255  0.70808377     0.14600
H4020       H  0.72712421  0.97062106  0.71107191     0.14600
H4021       H  0.78291313  0.77939385  0.70260263     0.14600
H4022       H  0.72666918  0.77892556  0.70376605     0.14600
H4023       H  0.85299642  0.90463250  0.63434820     0.12900
H4024       H  0.85340570  0.84836784  0.63432847     0.12900
H4025       H  0.65338861  0.90455262  0.64104307     0.12900
H4026       H  0.65230061  0.84835068  0.64011655     0.12900
H4027       H  0.75330345  0.90263975  0.65106379     0.26100
H4028       H  0.75328869  0.85013262  0.65059157     0.26100
N4029       N  0.70847691  0.62467232  0.79991912    -0.36600
N4030       N  0.75140431  0.66743685  0.80235010    -0.57200
N4031       N  0.79478129  0.62361953  0.80250914    -0.36600
N4032       N  0.75178891  0.58090396  0.79552806    -0.57200
C4033       C  0.69334632  0.64830396  0.79445468     0.27000
C4034       C  0.69381460  0.60276653  0.78735770     0.27000
C4035       C  0.80926766  0.64653209  0.79275943     0.27000
C4036       C  0.80964571  0.60057424  0.79334897     0.27000
C4037       C  0.72908705  0.68212672  0.81367634     0.35600
C4038       C  0.77475529  0.68198381  0.81110133     0.35600
C4039       C  0.72823993  0.56569701  0.80103628     0.35600
C4040       C  0.77368890  0.56532889  0.80616300     0.35600
C4041       C  0.66872096  0.64145307  0.77798125    -0.21900
C4042       C  0.66900652  0.61251989  0.77350758    -0.21900
C4043       C  0.83350518  0.63788773  0.77675337    -0.21900
C4044       C  0.83389995  0.60876169  0.77747565    -0.21900
C4045       C  0.73824627  0.70612268  0.82989842    -0.23000
C4046       C  0.76734864  0.70601688  0.82828823    -0.23000
C4047       C  0.73509305  0.54026597  0.81518272    -0.23000
C4048       C  0.76404380  0.54018619  0.81880567    -0.23000
C4049       C  0.70073736  0.67530550  0.80629420    -0.18300
C4050       C  0.70092589  0.57417807  0.79177372    -0.18300
C4051       C  0.80217348  0.57260467  0.80084892    -0.13500
C4052       C  0.80223007  0.67474020  0.80094882    -0.18300
H4053       H  0.65208456  0.65570287  0.77058139     0.14600
H4054       H  0.65253861  0.59998892  0.76218259     0.14600
H4055       H  0.84953826  0.65117906  0.76624653     0.14600
H4056       H  0.85012396  0.59518444  0.76751815     0.14600
H4057       H  0.72532142  0.72220868  0.84117635     0.12900
H4058       H  0.78139965  0.72197195  0.83815332     0.12900
H4059       H  0.72076948  0.52357156  0.82212127     0.12900
H4060       H  0.77659752  0.52328855  0.82872898     0.12900
H4061       H  0.72668276  0.62332527  0.81387352     0.26100
H4062       H  0.77677494  0.62364805  0.81677402     0.26100
N4063       N  0.50135003  0.66864307  0.92930322    -0.36600
N4064       N  0.54469046  0.62605126  0.93934903    -0.57200
N4065       N  0.50176188  0.58251955  0.93399111    -0.36600
N4066       N  0.95850821  0.62510161  0.92762753    -0.57200
C4067       C  0.52288697  0.68389506  0.94194806     0.27000
C4068       C  0.97724636  0.68333311  0.93446745     0.27000
C4069       C  0.52417185  0.56858530  0.94609120     0.27000
C4070       C  0.97821189  0.56841602  0.94271564     0.27000
C4071       C  0.56063088  0.64892842  0.93285026     0.35600
C4072       C  0.56094237  0.60325824  0.93295268     0.35600
C4073       C  0.94374680  0.64692712  0.91578739     0.35600
C4074       C  0.94368102  0.60159073  0.92027076     0.35600
C4075       C  0.51240380  0.70856801  0.95554356    -0.21900
C4076       C  0.98346327  0.70817521  0.95088561    -0.21900
C4077       C  0.51492144  0.54537187  0.96296506    -0.21900
C4078       C  0.98574541  0.54532485  0.96093033    -0.21900
C4079       C  0.58717776  0.64073497  0.92221910    -0.23000
C4080       C  0.58734622  0.61166808  0.92215012    -0.23000
C4081       C  0.91942947  0.63729970  0.90052323    -0.23000
C4082       C  0.91940026  0.60838361  0.90335363    -0.23000
C4083       C  0.55183287  0.67691028  0.93895821    -0.18300
C4084       C  0.95023897  0.67531313  0.92293496    -0.18300
C4085       C  0.95052480  0.57483002  0.93225245    -0.18300
C4086       C  0.55264317  0.57530289  0.93966995    -0.18300
H4087       H  0.52439927  0.72522913  0.96722618     0.14600
H4088       H  0.96875973  0.72444712  0.95840839     0.14600
H4089       H  0.52786720  0.52991936  0.97500575     0.14600
H4090       H  0.97175581  0.52977710  0.97117556     0.14600
H4091       H  0.60461765  0.65427087  0.91552525     0.12900
H4092       H  0.60497970  0.59833456  0.91533345     0.12900
H4093       H  0.90301769  0.64986340  0.88952382     0.12900
H4094       H  0.90296640  0.59414507  0.89495595     0.12900
H4095       H  0.50322821  0.65007951  0.91577773     0.26100
H4096       H  0.50274768  0.59951654  0.91845297     0.26100
C4097       C  0.63729264  0.76313774  0.68269566    -0.00200
C4098       C  0.65907614  0.75807607  0.66061317    -0.12100
C4099       C  0.68015775  0.77817351  0.65529711     0.02100
C4100       C  0.67999127  0.80382609  0.67257614    -0.00300
C4101       C  0.65799291  0.80926070  0.69409079    -0.12000
C4102       C  0.63657934  0.78939759  0.69909403     0.01900
H4103       H  0.65954786  0.73843215  0.64708557     0.14900
H4104       H  0.65778186  0.82905034  0.70736662     0.14900
C4105       C  0.61476302  0.79652660  0.72174446     0.36600
C4106       C  0.70139083  0.77220360  0.63156667     0.36500
N4107       N  0.59726256  0.80255512  0.73975085    -0.43800
N4108       N  0.71840922  0.76737494  0.61256682    -0.43800
C4109       C  0.87055868  0.76384757  0.67907872    -0.00200
C4110       C  0.84846001  0.75902231  0.65707998    -0.12100
C4111       C  0.82723679  0.77909359  0.65228549     0.02100
C4112       C  0.82770546  0.80461734  0.66975614    -0.00300
C4113       C  0.84956831  0.80961750  0.69172199    -0.12000
C4114       C  0.87083032  0.78955925  0.69666011     0.01900
H4115       H  0.84784435  0.73961908  0.64313023     0.14900
H4116       H  0.84964494  0.82910310  0.70556747     0.14900
C4117       C  0.89173509  0.79574383  0.72083882     0.36600
C4118       C  0.80529032  0.77312656  0.62916879     0.36500
N4119       N  0.90835149  0.80105253  0.74027773    -0.43800
N4120       N  0.78753286  0.76834813  0.61085641    -0.43800
C4121       C  0.87027058  0.99002648  0.67977612    -0.00200
C4122       C  0.84648773  0.99546860  0.66053091    -0.12100
C4123       C  0.82541553  0.97508448  0.65570756     0.02100
C4124       C  0.82743120  0.94874890  0.67083439    -0.00300
C4125       C  0.85089491  0.94326391  0.69027572    -0.12000
C4126       C  0.87233834  0.96335040  0.69467299     0.01900
H4127       H  0.84457274  0.01548178  0.64841496     0.14900
H4128       H  0.85237131  0.92313122  0.70224868     0.14900
C4129       C  0.89582062  0.45566513  0.71484295     0.36600
C4130       C  0.80246933  0.98140369  0.63423909     0.36500
N4131       N  0.91461177  0.44907359  0.73085105    -0.43800
N4132       N  0.78418655  0.98663013  0.61692649    -0.43800
C4133       C  0.63861312  0.98951766  0.68649390    -0.00200
C4134       C  0.66196386  0.99490856  0.66675745    -0.12100
C4135       C  0.68255664  0.97434561  0.66111318     0.02100
C4136       C  0.68078274  0.94807034  0.67633405    -0.00300
C4137       C  0.65773005  0.94258251  0.69622164    -0.12000
C4138       C  0.63646661  0.96271260  0.70100020     0.01900
H4139       H  0.66374455  0.51493754  0.65461275     0.14900
H4140       H  0.65632271  0.92236346  0.70801348     0.14900
C4141       C  0.61302120  0.95493981  0.72099740     0.36600
C4142       C  0.70439898  0.98013107  0.63821158     0.36500
N4143       N  0.59420065  0.94823330  0.73675685    -0.43800
N4144       N  0.72177627  0.98465711  0.61966465    -0.43800
C4145       C  0.61653590  0.75479476  0.55928405    -0.00200
C4146       C  0.61483694  0.77319074  0.53337523    -0.12100
C4147       C  0.59435467  0.79463194  0.53269733     0.02100
C4148       C  0.57760987  0.79996055  0.55986873    -0.00300
C4149       C  0.58053970  0.78245992  0.58622579    -0.12000
C4150       C  0.59748777  0.75848751  0.58468467     0.01900
H4151       H  0.62873284  0.77011586  0.51318375     0.14900
H4152       H  0.56733219  0.78601452  0.60693494     0.14900
C4153       C  0.59166488  0.73642802  0.60686610     0.36600
C4154       C  0.59063991  0.81052049  0.50391826     0.36500
N4155       N  0.58528243  0.71799228  0.62307232    -0.43800
N4156       N  0.58525853  0.82058448  0.97873312    -0.43800
C4157       C  0.88766676  0.75918092  0.56255644    -0.00200
C4158       C  0.88628970  0.78128057  0.58489133    -0.12100
C4159       C  0.90755658  0.80188516  0.58628710     0.02100
C4160       C  0.92924345  0.80181994  0.56323665    -0.00300
C4161       C  0.93002698  0.78007155  0.54035001    -0.12000
C4162       C  0.91027624  0.75811935  0.54089531     0.01900
H4163       H  0.86922106  0.78182618  0.60196488     0.14900
H4164       H  0.94697437  0.77955197  0.52301242     0.14900
C4165       C  0.91478801  0.73393123  0.52050329     0.36600
C4166       C  0.90776727  0.82174542  0.61258142     0.36500
N4167       N  0.91933550  0.71415396  0.50500870    -0.43800
N4168       N  0.90842590  0.83744392  0.63384223    -0.43800
C4169       C  0.93162714  0.94740733  0.57505782    -0.00200
C4170       C  0.93368409  0.96993574  0.55392021    -0.12100
C4171       C  0.91279954  0.99079198  0.55319445     0.02100
C4172       C  0.88891297  0.98859088  0.57303252    -0.00300
C4173       C  0.88691999  0.96613196  0.59433005    -0.12000
C4174       C  0.90859086  0.94606864  0.59619129     0.01900
H4175       H  0.95160829  0.97112389  0.53792553     0.14900
H4176       H  0.86882569  0.96461317  0.60991887     0.14900
C4177       C  0.90764620  0.92490437  0.62058774     0.36600
C4178       C  0.91617911  0.51402363  0.53159545     0.36500
N4179       N  0.90769301  0.90796876  0.64019093    -0.43800
N4180       N  0.91912376  0.53276562  0.51453150    -0.43800
C4181       C  0.62090182  0.98772411  0.58067241    -0.00200
C4182       C  0.62268059  0.96479000  0.60144587    -0.12100
C4183       C  0.60055147  0.94503652  0.60302843     0.02100
C4184       C  0.57777076  0.94654848  0.58138047    -0.00300
C4185       C  0.57571896  0.96979205  0.56120339    -0.12000
C4186       C  0.59647123  0.99084321  0.56162048     0.01900
H4187       H  0.64084341  0.96270493  0.61692744     0.14900
H4188       H  0.55766618  0.97160108  0.54532017     0.14900
C4189       C  0.59184083  0.01571370  0.54282690     0.36600
C4190       C  0.60054938  0.92411822  0.62770919     0.36500
N4191       N  0.58610596  0.53614811  0.02807619    -0.43800
N4192       N  0.59951186  0.90738119  0.64749683    -0.43800
C4193       C  0.88692153  0.50932925  0.93435043    -0.00200
C4194       C  0.88200795  0.53546955  0.94964106    -0.12100
C4195       C  0.90239451  0.55689783  0.94964181     0.02100
C4196       C  0.92827691  0.55263662  0.93364322    -0.00300
C4197       C  0.93344640  0.52661926  0.91865997    -0.12000
C4198       C  0.91330973  0.50501593  0.91887616     0.01900
H4199       H  0.86230416  0.53921449  0.96216244     0.14900
H4200       H  0.95337087  0.52329604  0.90635940     0.14900
C4201       C  0.92089404  0.47899152  0.90285903     0.36600
C4202       C  0.89657599  0.58264465  0.96719648     0.36500
N4203       N  0.92758260  0.95824264  0.89019429    -0.43800
N4204       N  0.89131809  0.60487966  0.47904970    -0.43800
C4205       C  0.57438162  0.55255449  0.94115276    -0.00200
C4206       C  0.59834921  0.55659581  0.96039381    -0.12100
C4207       C  0.62001113  0.53650718  0.96138645     0.02100
C4208       C  0.61756586  0.51107137  0.94339315    -0.00300
C4209       C  0.59301342  0.50676222  0.92483783    -0.12000
C4210       C  0.57173164  0.52725958  0.92329068     0.01900
H4211       H  0.60027321  0.57581607  0.97455244     0.14900
H4212       H  0.59078364  0.98776406  0.91040420     0.14900
C4213       C  0.54859458  0.52280849  0.90115601     0.36600
C4214       C  0.64423853  0.54305064  0.98118129     0.36500
N4215       N  0.53032339  0.51945488  0.88307625    -0.43800
N4216       N  0.66360669  0.54880318  0.99690896    -0.43800
C4217       C  0.57330498  0.69998520  0.94073833    -0.00200
C4218       C  0.57023977  0.72313812  0.92055525    -0.12100
C4219       C  0.58996150  0.74518196  0.92078563     0.02100
C4220       C  0.61441918  0.74356907  0.94032975    -0.00300
C4221       C  0.61702273  0.72064554  0.96113654    -0.12000
C4222       C  0.59646596  0.69935114  0.96201687     0.01900
H4223       H  0.55214416  0.72405972  0.90460883     0.14900
H4224       H  0.63498559  0.71949881  0.97722549     0.14900
C4225       C  0.59929000  0.67750179  0.98547491     0.36600
C4226       C  0.58388698  0.76917127  0.90110923     0.36500
N4227       N  0.60159097  0.66005973  0.00434498    -0.43800
N4228       N  0.57833475  0.78861811  0.88593042    -0.43800
C4229       C  0.88333515  0.73721161  0.92684687    -0.00200
C4230       C  0.90728033  0.74185961  0.90768832    -0.12100
C4231       C  0.92900972  0.72185040  0.90549882     0.02100
C4232       C  0.92698348  0.69646721  0.92249415    -0.00300
C4233       C  0.90275276  0.69126278  0.94062163    -0.12000
C4234       C  0.88106556  0.71118083  0.94306152     0.01900
H4235       H  0.90923736  0.76127964  0.89444777     0.14900
H4236       H  0.90125458  0.67182600  0.95396071     0.14900
C4237       C  0.85775507  0.70445203  0.96380369     0.36600
C4238       C  0.95303148  0.72764910  0.88541195     0.36500
N4239       N  0.83928544  0.69872450  0.98055441    -0.43800
N4240       N  0.97225040  0.73204271  0.86919513    -0.43800
C4241       C  0.82450125  0.55036094  0.80190525    -0.00200
C4242       C  0.84857395  0.55490800  0.82100028    -0.12100
C4243       C  0.86991860  0.53451572  0.82280060     0.02100
C4244       C  0.86649023  0.50832903  0.80690535    -0.00300
C4245       C  0.84267351  0.50378774  0.78757471    -0.12000
C4246       C  0.82222407  0.52491688  0.78410743     0.01900
H4247       H  0.85086921  0.57462764  0.83416290     0.14900
H4248       H  0.84067721  0.98415482  0.77419648     0.14900
C4249       C  0.79973104  0.52057129  0.76123319     0.36600
C4250       C  0.89544210  0.54127622  0.84029225     0.36500
N4251       N  0.78147318  0.51757066  0.74308827    -0.43800
N4252       N  0.91624748  0.54703456  0.85347301    -0.43800
C4253       C  0.67790513  0.55307209  0.79243233    -0.00200
C4254       C  0.65742502  0.55610326  0.81607669    -0.12100
C4255       C  0.63706609  0.53530766  0.82049550     0.02100
C4256       C  0.63785689  0.51029596  0.80208056    -0.00300
C4257       C  0.65781368  0.50750878  0.77764634    -0.12000
C4258       C  0.67749182  0.52909067  0.77223421     0.01900
H4259       H  0.65756831  0.57472587  0.83137666     0.14900
H4260       H  0.65760057  0.48884506  0.76246515     0.14900
C4261       C  0.69640171  0.52678334  0.74547083     0.36600
C4262       C  0.61551544  0.54056456  0.84388097     0.36500
N4263       N  0.71130755  0.52530172  0.72376252    -0.43800
N4264       N  0.59824744  0.54596091  0.86232638    -0.43800
C4265       C  0.67883218  0.69778954  0.80854441    -0.00200
C4266       C  0.68332365  0.72307943  0.79217899    -0.12100
C4267       C  0.66393385  0.74525165  0.79428120     0.02100
C4268       C  0.63893209  0.74184773  0.81201091    -0.00300
C4269       C  0.63411432  0.71650108  0.82804880    -0.12000
C4270       C  0.65405072  0.69466373  0.82692829     0.01900
H4271       H  0.70224415  0.72556704  0.77790704     0.14900
H4272       H  0.61496668  0.71399741  0.84194833     0.14900
C4273       C  0.64887946  0.66965043  0.84538063     0.36600
C4274       C  0.67006190  0.77105590  0.77768336     0.36500
N4275       N  0.64460052  0.64963238  0.86015969    -0.43800
N4276       N  0.67530274  0.79181687  0.76469442    -0.43800
C4277       C  0.86777415  0.73813394  0.80596854    -0.00200
C4278       C  0.84203770  0.74430200  0.79077455    -0.12100
C4279       C  0.82111666  0.72351976  0.78699664     0.02100
C4280       C  0.82483487  0.69677964  0.80114601    -0.00300
C4281       C  0.85068217  0.69074798  0.81615239    -0.12000
C4282       C  0.87260473  0.71048251  0.81700599     0.01900
H4283       H  0.83873461  0.76507660  0.78077279     0.14900
H4284       H  0.85403596  0.67019549  0.82667971     0.14900
C4285       C  0.89993806  0.70105932  0.82806575     0.36600
C4286       C  0.79662531  0.72983813  0.76762892     0.36500
N4287       N  0.92178544  0.69238175  0.83578665    -0.43800
N4288       N  0.77707236  0.73488078  0.75200968    -0.43800
loop_ 
_geom_bond_atom_site_label_1 
_geom_bond_atom_site_label_2 
_geom_bond_distance 
_geom_bond_site_symmetry_2 
_ccdc_geom_bond_type 
O1            V9   1.909       .  S
O1           C11   1.263       .  A
O2            V9   1.914       .  S
O2           C12   1.269       .  A
O3            V9   1.910       .  S
O3           C13   1.268       .  A
O4            V9   1.912       .  S
O4           C14   1.264       .  A
O5           V10   1.906       .  S
O5           C14   1.268       .  A
O6           V10   1.905       .  S
O6           C13   1.263       .  A
O7           V10   1.912       .  S
O7           C12   1.264       .  A
O8           V10   1.906       .  S
O8           C11   1.267       .  A
V9           V10   2.087       .  T
C11          C99   1.473       .  S
C12          C79   1.482       .  S
C13          C47   1.475       .  S
C14         C145   1.475       .  S
O15          V23   1.907       .  S
O15          C25   1.263       .  A
O16          V23   1.907       .  S
O16          C26   1.268       .  A
O17          V23   1.900       .  S
O17          C27   1.265       .  A
O18          V23   1.902       .  S
O18          C28   1.262       .  A
O19          V24   1.909       .  S
O19          C28   1.268       .  A
O20          V24   1.909       .  S
O20          C27   1.264       .  A
O21          V24   1.917       .  S
O21          C26   1.265       .  A
O22          V24   1.913       .  S
O22          C25   1.269       .  A
V23          V24   2.087       .  T
C25          C73   1.478       .  S
C26         C103   1.481       .  S
C27         C137   1.470       .  S
C28          C51   1.472       .  S
O29          V37   1.909       .  S
O29          C39   1.269       .  A
O30        V2181   1.912       .  S
O30          C40   1.265       .  A
O31          V37   1.904       .  S
O31          C41   1.261       .  A
O32        V2181   1.898       .  S
O32          C42   1.265       .  A
O33        V2182   1.907       .  S
O33          C42   1.263       .  A
O34          V38   1.909       .  S
O34          C41   1.269       .  A
O35        V2182   1.903       .  S
O35          C40   1.266       .  A
O36          V38   1.902       .  S
O36          C39   1.261       .  A
V37        O2174   1.912   1_455  S
V37        O2176   1.898   1_455  S
V37          V38   2.087       .  T
V38        O2177   1.907   1_455  S
V38        O2179   1.903   1_455  S
C39          C53   1.471       .  S
C40         C199   1.475       .  S
C41         C205   1.474       .  S
C42          C45   1.465       .  S
C43         C525   1.473       .  S
C43          N44   1.349       .  A
C43          N48   1.356       .  A
N44          C45   1.352       .  A
C45          N46   1.366       .  A
N46          C47   1.368       .  A
C47          N48   1.360       .  A
C49         C516   1.467       .  S
C49          N50   1.353       .  A
C49          N54   1.351       .  A
N50          C51   1.356       .  A
C51          N52   1.370       .  A
N52          C53   1.369       .  A
C53          N54   1.353       .  A
O55        V2207   1.908       .  S
O55        C1137   1.268       .  A
O56          V63   1.906       .  S
O56          C66   1.263       .  A
O57        V2207   1.913       .  S
O57          C67   1.264       .  A
O58          V63   1.910       .  S
O58        C1140   1.269       .  A
O59          V64   1.912       .  S
O59          C68   1.264       .  A
O60        V2208   1.905       .  S
O60        C1139   1.268   1_545  A
O61          V64   1.900       .  S
O61        C1138   1.266   1_545  A
O62        V2208   1.907       .  S
O62          C65   1.262       .  A
V63        O2199   1.908   1_455  S
V63        O2201   1.913   1_455  S
V63        V1136   2.087       .  T
V64        O2204   1.905   1_455  S
V64        O2206   1.907   1_455  S
V64        V1135   2.087   1_545  T
C65        O1127   1.268   1_545  A
C65         C193   1.474       .  S
C66        O1133   1.266       .  A
C66          C71   1.465       .  S
C67        O1132   1.268       .  A
C67          C77   1.476       .  S
C68        O1130   1.269   1_545  A
C68         C189   1.479       .  S
C69        C1576   1.463       .  S
C69          N70   1.346       .  A
C69          N74   1.355       .  A
N70          C71   1.350       .  A
C71          N72   1.368       .  A
N72          C73   1.371       .  A
C73          N74   1.360       .  A
C75        C1564   1.467       .  S
C75          N76   1.348       .  A
C75          N80   1.353       .  A
N76          C77   1.353       .  A
C77          N78   1.373       .  A
N78          C79   1.375       .  A
C79          N80   1.357       .  A
O81          V89   1.915       .  S
O81          C91   1.270       .  A
O82         V625   1.919   1_554  S
O82          C92   1.266       .  A
O83         V625   1.907   1_554  S
O83          C93   1.262       .  A
O84          V89   1.903       .  S
O84          C94   1.267       .  A
O85         V626   1.912       .  S
O85          C94   1.264       .  A
O86          V90   1.912       .  S
O86          C93   1.270       .  A
O87          V90   1.905       .  S
O87          C92   1.267       .  A
O88         V626   1.909       .  S
O88          C91   1.262       .  A
V89         O618   1.918       .  S
V89         O619   1.908       .  S
V89         V626   2.086       .  T
V90         O621   1.914   1_554  S
V90         O624   1.909   1_554  S
V90         V625   2.086   1_554  T
C91         C105   1.478       .  S
C92         C177   1.480       .  S
C93         C181   1.475       .  S
C94          C97   1.473       .  S
C95         C477   1.487       .  S
C95          N96   1.350       .  A
C95         N100   1.354       .  A
N96          C97   1.353       .  A
C97          N98   1.370       .  A
N98          C99   1.370       .  A
C99         N100   1.356       .  A
C101        C468   1.487       .  S
C101        N102   1.352       .  A
C101        N106   1.354       .  A
N102        C103   1.355       .  A
C103        N104   1.372       .  A
N104        C105   1.373       .  A
C105        N106   1.355       .  A
O107        V115   1.907       .  S
O107        C117   1.262       .  A
O108        V115   1.904       .  S
O108        C118   1.267       .  A
O109        V115   1.907       .  S
O109        C119   1.268       .  A
O110        V115   1.907       .  S
O110        C120   1.263       .  A
O111        V116   1.909       .  S
O111        C120   1.268       .  A
O112        V116   1.916       .  S
O112        C119   1.265       .  A
O113        V116   1.910       .  S
O113        C118   1.264       .  A
O114        V116   1.908       .  S
O114        C117   1.268       .  A
V115        V116   2.087       .  T
C117        C201   1.471       .  S
C118        C171   1.473       .  S
C119        C175   1.479       .  S
C120        C195   1.474       .  S
O121        V665   1.916   1_554  S
O121        C131   1.266       .  A
O122        V129   1.914       .  S
O122       C1204   1.270   1_545  A
O123        V129   1.902       .  S
O123       C1205   1.266   1_545  A
O124        V665   1.904   1_554  S
O124        C134   1.262       .  A
O125        V130   1.909       .  S
O125       C1206   1.268       .  A
O126        V666   1.907       .  S
O126        C133   1.263       .  A
O127        V666   1.910       .  S
O127        C132   1.263       .  A
O128        V130   1.912       .  S
O128       C1203   1.268       .  A
V129        O657   1.916       .  S
V129        O660   1.904       .  S
V129       V1738   2.087   1_545  T
V130        O662   1.906   1_554  S
V130        O663   1.909   1_554  S
V130       V1737   2.087   1_554  T
C131       O1200   1.268   1_545  A
C131        C165   1.486       .  S
C132       O1194   1.270       .  A
C132        C143   1.480       .  S
C133       O1195   1.266       .  A
C133        C139   1.469       .  S
C134       O1197   1.268   1_545  A
C134        C169   1.475       .  S
C135       C1528   1.489       .  S
C135        N136   1.354       .  A
C135        N140   1.353       .  A
N136        C137   1.357       .  A
C137        N138   1.367       .  A
N138        C139   1.367       .  A
C139        N140   1.355       .  A
C141       C1513   1.489       .  S
C141        N142   1.356       .  A
C141        N146   1.349       .  A
N142        C143   1.357       .  A
C143        N144   1.373       .  A
N144        C145   1.371       .  A
C145        N146   1.351       .  A
O147        V155   1.906       .  S
O147        C157   1.267       .  A
O148        V155   1.911       .  S
O148        C158   1.263       .  A
O149        V155   1.926       .  S
O149        C159   1.267       .  A
O150        V155   1.915       .  S
O150        C160   1.270       .  A
O151        V156   1.903       .  S
O151        C160   1.261       .  A
O152        V156   1.906       .  S
O152        C159   1.268       .  A
O153        V156   1.910       .  S
O153        C158   1.269       .  A
O154        V156   1.912       .  S
O154        C157   1.264       .  A
V155        V156   2.086       .  T
C157        C207   1.474       .  S
C158        C163   1.478       .  S
C159        C183   1.486       .  S
C160        C187   1.475       .  S
C161       C1501   1.475   1_545  S
C161        N162   1.351       .  A
C161        N166   1.356       .  A
N162        C163   1.355       .  A
C163        N164   1.370       .  A
N164        C165   1.373       .  A
C165        N166   1.362       .  A
C167       C1492   1.468   1_545  S
C167        N168   1.353       .  A
C167        N172   1.351       .  A
N168        C169   1.358       .  A
C169        N170   1.370       .  A
N170        C171   1.368       .  A
C171        N172   1.355       .  A
C173        C405   1.465       .  S
C173        N174   1.350       .  A
C173        N178   1.350       .  A
N174        C175   1.356       .  A
C175        N176   1.374       .  A
N176        C177   1.374       .  A
C177        N178   1.356       .  A
C179        C393   1.477       .  S
C179        N180   1.349       .  A
C179        N184   1.353       .  A
N180        C181   1.354       .  A
C181        N182   1.375       .  A
N182        C183   1.374       .  A
C183        N184   1.356       .  A
C185       C1453   1.484   1_545  S
C185        N186   1.353       .  A
C185        N190   1.353       .  A
N186        C187   1.353       .  A
C187        N188   1.371       .  A
N188        C189   1.371       .  A
C189        N190   1.356       .  A
C191       C1441   1.487   1_545  S
C191        N192   1.353       .  A
C191        N196   1.354       .  A
N192        C193   1.355       .  A
C193        N194   1.370       .  A
N194        C195   1.369       .  A
C195        N196   1.355       .  A
C197        C357   1.487       .  S
C197        N198   1.355       .  A
C197        N202   1.352       .  A
N198        C199   1.358       .  A
C199        N200   1.369       .  A
N200        C201   1.368       .  A
C201        N202   1.353       .  A
C203        C345   1.481       .  S
C203        N204   1.352       .  A
C203        N208   1.352       .  A
N204        C205   1.355       .  A
C205        N206   1.372       .  A
N206        C207   1.371       .  A
C207        N208   1.353       .  A
N209        C213   1.349       .  A
N209       C2358   1.349   1_455  A
N209        H241   1.041       .  S
N210        C217   1.351       .  A
N210        C218   1.352       .  A
N211        C215   1.352       .  A
N211       C2360   1.353   1_455  A
N211        H242   1.040       .  S
N212        C219   1.348       .  A
N212        C220   1.348       .  A
C213        C221   1.388       .  A
C213        C229   1.410       .  A
C214       N2353   1.349       .  A
C214        C230   1.407       .  A
C214        C222   1.386       .  A
C215        C223   1.392       .  A
C215        C232   1.422       .  A
C216       N2355   1.353       .  A
C216        C231   1.413       .  A
C216        C224   1.384       .  A
C217        C229   1.415       .  A
C217        C225   1.385       .  A
C218        C232   1.416       .  A
C218        C226   1.388       .  A
C219        C227   1.387       .  A
C219        C230   1.408       .  A
C220        C228   1.385       .  A
C220        C231   1.406       .  A
C221       C2366   1.376   1_455  A
C221        H233   1.082       .  S
C222       C2365   1.376       .  A
C222        H234   1.083       .  S
C223       C2368   1.369   1_455  A
C223        H235   1.080       .  S
C224       C2367   1.369       .  A
C224        H236   1.082       .  S
C225        C226   1.370       .  A
C225        H237   1.082       .  S
C226        H238   1.081       .  S
C227        C228   1.372       .  A
C227        H239   1.082       .  S
C228        H240   1.082       .  S
C229        C432   1.488       .  S
C230        C417   1.483       .  S
C231        C408   1.487       .  S
C232        C396   1.488       .  S
N243        C248   1.346       .  A
N243        C247   1.347       .  A
N243        H275   1.044       .  S
N244        C251   1.348       .  A
N244        C252   1.346       .  A
N245        C250   1.349       .  A
N245        C249   1.348       .  A
N245        H276   1.043       .  S
N246        C253   1.346       .  A
N246        C254   1.347       .  A
C247        C255   1.385       .  A
C247        C263   1.404       .  A
C248        C264   1.404       .  A
C248        C256   1.386       .  A
C249        C257   1.387       .  A
C249        C266   1.408       .  A
C250        C265   1.408       .  A
C250        C258   1.387       .  A
C251        C263   1.405       .  A
C251        C259   1.381       .  A
C252        C266   1.405       .  A
C252        C260   1.384       .  A
C253        C261   1.380       .  A
C253        C264   1.404       .  A
C254        C262   1.385       .  A
C254        C265   1.405       .  A
C255        C256   1.376       .  A
C255        H267   1.081       .  S
C256        H268   1.081       .  S
C257        C258   1.379       .  A
C257        H269   1.082       .  S
C258        H270   1.082       .  S
C259        C260   1.375       .  A
C259        H271   1.078       .  S
C260        H272   1.080       .  S
C261        C262   1.375       .  A
C261        H273   1.075       .  S
C262        H274   1.083       .  S
C263        C372   1.487       .  S
C264        C384   1.484       .  S
C265        C348   1.484       .  S
C266        C360   1.483       .  S
N277        C282   1.347       .  A
N277        C281   1.348       .  A
N277        H309   1.041       .  S
N278        C285   1.348       .  A
N278        C286   1.346       .  A
N279        C284   1.350       .  A
N279        C283   1.350       .  A
N279        H310   1.042       .  S
N280        C287   1.345       .  A
N280        C288   1.348       .  A
C281        C289   1.387       .  A
C281        C297   1.409       .  A
C282        C298   1.408       .  A
C282        C290   1.387       .  A
C283        C291   1.388       .  A
C283        C300   1.414       .  A
C284        C299   1.409       .  A
C284        C292   1.385       .  A
C285        C297   1.407       .  A
C285        C293   1.386       .  A
C286        C300   1.407       .  A
C286        C294   1.386       .  A
C287        C295   1.387       .  A
C287        C298   1.406       .  A
C288        C296   1.386       .  A
C288        C299   1.406       .  A
C289        C290   1.380       .  A
C289        H301   1.082       .  S
C290        H302   1.083       .  S
C291        C292   1.379       .  A
C291        H303   1.082       .  S
C292        H304   1.082       .  S
C293        C294   1.374       .  A
C293        H305   1.082       .  S
C294        H306   1.082       .  S
C295        C296   1.374       .  A
C295        H307   1.082       .  S
C296        H308   1.082       .  S
C297        C513   1.486       .  S
C298        C501   1.476       .  S
C299        C489   1.490       .  S
C300        C528   1.491       .  S
N311        C315   1.350       .  A
N311       C2460   1.350   1_455  A
N311        H343   1.043       .  S
N312        C319   1.349       .  A
N312        C320   1.349       .  A
N313        C317   1.348       .  A
N313       C2462   1.350   1_455  A
N313        H344   1.041       .  S
N314        C321   1.345       .  A
N314        C322   1.345       .  A
C315        C323   1.387       .  A
C315        C331   1.411       .  A
C316       N2455   1.350       .  A
C316        C332   1.411       .  A
C316        C324   1.387       .  A
C317        C325   1.386       .  A
C317        C334   1.408       .  A
C318       N2457   1.350       .  A
C318        C333   1.412       .  A
C318        C326   1.388       .  A
C319        C331   1.409       .  A
C319        C327   1.386       .  A
C320        C334   1.411       .  A
C320        C328   1.387       .  A
C321        C329   1.387       .  A
C321        C332   1.406       .  A
C322        C330   1.387       .  A
C322        C333   1.405       .  A
C323       C2468   1.378   1_455  A
C323        H335   1.082       .  S
C324       C2467   1.378       .  A
C324        H336   1.082       .  S
C325       C2470   1.378   1_455  A
C325        H337   1.082       .  S
C326       C2469   1.378       .  A
C326        H338   1.082       .  S
C327        C328   1.376       .  A
C327        H339   1.082       .  S
C328        H340   1.082       .  S
C329        C330   1.375       .  A
C329        H341   1.082       .  S
C330        H342   1.082       .  S
C331        C465   1.490       .  S
C332        C480   1.485       .  S
C333        C444   1.486       .  S
C334        C453   1.489       .  S
C345        C346   1.407       .  A
C345        C350   1.415       .  A
C346        C347   1.394       .  A
C346        H351   1.085       .  S
C347        C348   1.408       .  A
C347        C354   1.444       .  S
C348        C349   1.403       .  A
C349        C350   1.397       .  A
C349        H352   1.085       .  S
C350        C353   1.443       .  S
C353        N355   1.157       .  T
C354        N356   1.157       .  T
C357        C358   1.409       .  A
C357        C362   1.417       .  A
C358        C359   1.396       .  A
C358        H363   1.085       .  S
C359        C360   1.407       .  A
C359        C366   1.444       .  S
C360        C361   1.401       .  A
C361        C362   1.398       .  A
C361        H364   1.085       .  S
C362        C365   1.443       .  S
C365        N367   1.157       .  T
C366        N368   1.157       .  T
C369       C1263   1.487       .  S
C369        C370   1.408       .  A
C369        C374   1.418       .  A
C370        C371   1.398       .  A
C370        H375   1.085       .  S
C371        C372   1.409       .  A
C371        C378   1.442       .  S
C372        C373   1.400       .  A
C373        C374   1.397       .  A
C373        H376   1.085       .  S
C374       C1449   1.443       .  S
C377       C1446   1.443       .  S
C377        N379   1.157       .  T
C378        N380   1.156       .  T
C381       C1257   1.484       .  S
C381        C382   1.407       .  A
C381        C386   1.417       .  A
C382        C383   1.395       .  A
C382       H1459   1.084       .  S
C383        C384   1.408       .  A
C383        C390   1.443       .  S
C384        C385   1.401       .  A
C385        C386   1.397       .  A
C385        H388   1.085       .  S
C386        C389   1.442       .  S
H387       C1454   1.084   1_545  S
C389        N391   1.156       .  T
C390        N392   1.156       .  T
C393        C394   1.406       .  A
C393        C398   1.408       .  A
C394        C395   1.403       .  A
C394        H399   1.084       .  S
C395        C396   1.413       .  A
C395        C402   1.444       .  S
C396        C397   1.399       .  A
C397        C398   1.389       .  A
C397        H400   1.086       .  S
C398        C401   1.435       .  S
C401        N403   1.154       .  T
C402        N940   1.157   1_554  T
N404        C938   1.157       .  T
C405        C406   1.400       .  A
C405        C410   1.407       .  A
C406        C407   1.398       .  A
C406        H411   1.081       .  S
C407        C408   1.413       .  A
C407        C414   1.444       .  S
C408        C409   1.403       .  A
C409        C410   1.395       .  A
C409        H412   1.085       .  S
C410        C413   1.440       .  S
C413        N415   1.156       .  T
C414        N416   1.157       .  T
C417        C418   1.402       .  A
C417        C422   1.408       .  A
C418        C419   1.397       .  A
C418        H423   1.085       .  S
C419        C420   1.410       .  A
C419       C1498   1.443       .  S
C420       C1239   1.468       .  S
C420        C421   1.402       .  A
C421        C422   1.398       .  A
C421        H424   1.081       .  S
C422        C425   1.444       .  S
C425        N427   1.157       .  T
C426       C1491   1.443   1_545  S
C426        N428   1.157       .  T
C429       C1233   1.475       .  S
C429        C430   1.405       .  A
C429        C434   1.411       .  A
C430        C431   1.403       .  A
C430        H435   1.080       .  S
C431        C432   1.408       .  A
C431        C438   1.444       .  S
C432        C433   1.401       .  A
C433        C434   1.396       .  A
C433        H436   1.085       .  S
C434        C437   1.442       .  S
C437       N2047   1.156       .  T
C438        N440   1.157       .  T
N439       C2045   1.156       .  T
C441       C1213   1.489   1_545  S
C441        C442   1.408       .  A
C441        C446   1.421       .  A
C442        C443   1.397       .  A
C442        H447   1.084       .  S
C443        C444   1.411       .  A
C443        C450   1.445       .  S
C444        C445   1.398       .  A
C445        C446   1.394       .  A
C445        H448   1.086       .  S
C446        C449   1.443   1_545  S
C449       N1523   1.157       .  T
C450        N988   1.157       .  T
N451       C1521   1.157       .  T
N452        C986   1.157       .  T
C453        C454   1.400       .  A
C453        C458   1.412       .  A
C454        C455   1.397       .  A
C454        H459   1.085       .  S
C455        C456   1.418       .  A
C455        C462   1.443       .  S
C456       C1207   1.489   1_545  S
C456        C457   1.408       .  A
C457        C458   1.399       .  A
C457       H1532   1.084   1_545  S
C458        C461   1.446       .  S
H460       C1529   1.084       .  S
C461        N463   1.157       .  T
C462        N464   1.157       .  T
C465        C466   1.402       .  A
C465        C470   1.411       .  A
C466        C467   1.397       .  A
C466        H471   1.085       .  S
C467        C468   1.417       .  A
C467        C474   1.442       .  S
C468        C469   1.408       .  A
C469        C470   1.398       .  A
C469        H472   1.085       .  S
C470        C473   1.444       .  S
C473        N475   1.157       .  T
C474        N476   1.156       .  T
C477        C478   1.409       .  A
C477        C482   1.419       .  A
C478        C479   1.398       .  A
C478        H483   1.084       .  S
C479        C480   1.408       .  A
C479        C486   1.445       .  S
C480        C481   1.400       .  A
C481        C482   1.395       .  A
C481        H484   1.086       .  S
C482        C485   1.444       .  S
C485        N487   1.157       .  T
C486        N488   1.157       .  T
C489        C490   1.404       .  A
C489        C494   1.414       .  A
C490        C491   1.397       .  A
C490        H495   1.085       .  S
C491        C492   1.410       .  A
C491        C498   1.443       .  S
C492       C1147   1.467   1_545  S
C492        C493   1.399       .  A
C493        C494   1.397       .  A
C493       H1568   1.085   1_545  S
C494        C497   1.443       .  S
H496       C1565   1.085       .  S
C497        N499   1.157       .  T
C498        N500   1.156       .  T
C501        C502   1.397       .  A
C501        C506   1.410       .  A
C502        C503   1.390       .  A
C502        H507   1.086       .  S
C503        C504   1.409       .  A
C503        C510   1.438       .  S
C504       C1141   1.463   1_545  S
C504        C505   1.402       .  A
C505        C506   1.400       .  A
C505        H508   1.084   1_545  S
C506        C509   1.443       .  S
C509        N511   1.157       .  T
C510        N512   1.155       .  T
C513        C514   1.405       .  A
C513        C518   1.413       .  A
C514        C515   1.396       .  A
C514        H519   1.085       .  S
C515        C516   1.409       .  A
C515        C522   1.443       .  S
C516        C517   1.402       .  A
C517        C518   1.397       .  A
C517        H520   1.085       .  S
C518        C521   1.444       .  S
C521        N523   1.157       .  T
C522        N524   1.157       .  T
C525        C526   1.402       .  A
C525        C530   1.412       .  A
C526        C527   1.399       .  A
C526        H531   1.085       .  S
C527        C528   1.416       .  A
C527        C534   1.445       .  S
C528        C529   1.403       .  A
C529        C530   1.394       .  A
C529        H532   1.085       .  S
C530        C533   1.442       .  S
C533        N535   1.157       .  T
C534        N536   1.157       .  T
O537        V545   1.910       .  S
O537        C547   1.264       .  A
O538        V545   1.915       .  S
O538        C548   1.270       .  A
O539        V545   1.910       .  S
O539        C549   1.268       .  A
O540        V545   1.912       .  S
O540        C550   1.263       .  A
O541        V546   1.904       .  S
O541        C550   1.267       .  A
O542        V546   1.903       .  S
O542        C549   1.262       .  A
O543        V546   1.915       .  S
O543        C548   1.265       .  A
O544        V546   1.909       .  S
O544        C547   1.268       .  A
V545        V546   2.087       .  T
C547        C635   1.475       .  S
C548        C615   1.485       .  S
C549        C583   1.473       .  S
C550        C681   1.474       .  S
O551        V559   1.909       .  S
O551        C561   1.264       .  A
O552        V559   1.908       .  S
O552        C562   1.269       .  A
O553        V559   1.899       .  S
O553        C563   1.265       .  A
O554        V559   1.901       .  S
O554        C564   1.261       .  A
O555        V560   1.909       .  S
O555        C564   1.268       .  A
O556        V560   1.910       .  S
O556        C563   1.264       .  A
O557        V560   1.917       .  S
O557        C562   1.265       .  A
O558        V560   1.912       .  S
O558        C561   1.268       .  A
V559        V560   2.087       .  T
C561        C609   1.478       .  S
C562        C639   1.482       .  S
C563        C673   1.470       .  S
C564        C587   1.471       .  S
O565        V573   1.908       .  S
O565        C575   1.268       .  A
O566       V2717   1.911       .  S
O566        C576   1.265       .  A
O567        V573   1.904       .  S
O567        C577   1.261       .  A
O568       V2717   1.898       .  S
O568        C578   1.265       .  A
O569       V2718   1.905       .  S
O569        C578   1.263       .  A
O570        V574   1.908       .  S
O570        C577   1.269       .  A
O571       V2718   1.903       .  S
O571        C576   1.266       .  A
O572        V574   1.902       .  S
O572        C575   1.261       .  A
V573       O2710   1.911   1_455  S
V573       O2712   1.898   1_455  S
V573        V574   2.088       .  T
V574       O2713   1.905   1_455  S
V574       O2715   1.903   1_455  S
C575        C589   1.470       .  S
C576        C735   1.475       .  S
C577        C741   1.474       .  S
C578        C581   1.464       .  S
C579       C1061   1.473       .  S
C579        N580   1.350       .  A
C579        N584   1.356       .  A
N580        C581   1.353       .  A
C581        N582   1.365       .  A
N582        C583   1.367       .  A
C583        N584   1.359       .  A
C585       C1052   1.466       .  S
C585        N586   1.352       .  A
C585        N590   1.350       .  A
N586        C587   1.355       .  A
C587        N588   1.370       .  A
N588        C589   1.369       .  A
C589        N590   1.353       .  A
O591       V2743   1.907       .  S
O591       C1673   1.268       .  A
O592        V599   1.905       .  S
O592        C602   1.262       .  A
O593       V2743   1.913       .  S
O593        C603   1.264       .  A
O594        V599   1.909       .  S
O594       C1676   1.268       .  A
O595        V600   1.912       .  S
O595        C604   1.264       .  A
O596       V2744   1.908       .  S
O596       C1675   1.269   1_545  A
O597        V600   1.902       .  S
O597       C1674   1.266   1_545  A
O598       V2744   1.909       .  S
O598        C601   1.263       .  A
V599       O2735   1.907   1_455  S
V599       O2737   1.913   1_455  S
V599       V1672   2.087       .  T
V600       O2740   1.908   1_455  S
V600       O2742   1.909   1_455  S
V600       V1671   2.087   1_545  T
C601       O1663   1.268   1_545  A
C601        C729   1.475       .  S
C602       O1669   1.266       .  A
C602        C607   1.466       .  S
C603       O1668   1.269       .  A
C603        C613   1.478       .  S
C604       O1666   1.268   1_545  A
C604        C725   1.478       .  S
C605       C2112   1.462       .  S
C605        N606   1.347       .  A
C605        N610   1.355       .  A
N606        C607   1.350       .  A
C607        N608   1.368       .  A
N608        C609   1.371       .  A
C609        N610   1.360       .  A
C611       C2100   1.468       .  S
C611        N612   1.348       .  A
C611        N616   1.354       .  A
N612        C613   1.352       .  A
C613        N614   1.374       .  A
N614        C615   1.375       .  A
C615        N616   1.359       .  A
O617        V625   1.916       .  S
O617        C627   1.270       .  A
O618        C628   1.266       .  A
O619        C629   1.262       .  A
O620        V625   1.903       .  S
O620        C630   1.267       .  A
O621        C630   1.264       .  A
O622        V626   1.910       .  S
O622        C629   1.269       .  A
O623        V626   1.905       .  S
O623        C628   1.267       .  A
O624        C627   1.262       .  A
C627        C641   1.480       .  S
C628        C713   1.480       .  S
C629        C717   1.474       .  S
C630        C633   1.475       .  S
C631       C1013   1.488       .  S
C631        N632   1.351       .  A
C631        N636   1.354       .  A
N632        C633   1.353       .  A
C633        N634   1.370       .  A
N634        C635   1.371       .  A
C635        N636   1.357       .  A
C637       C1004   1.487       .  S
C637        N638   1.352       .  A
C637        N642   1.354       .  A
N638        C639   1.355       .  A
C639        N640   1.373       .  A
N640        C641   1.374       .  A
C641        N642   1.355       .  A
O643        V651   1.909       .  S
O643        C653   1.263       .  A
O644        V651   1.906       .  S
O644        C654   1.267       .  A
O645        V651   1.909       .  S
O645        C655   1.268       .  A
O646        V651   1.910       .  S
O646        C656   1.263       .  A
O647        V652   1.910       .  S
O647        C656   1.269       .  A
O648        V652   1.915       .  S
O648        C655   1.265       .  A
O649        V652   1.906       .  S
O649        C654   1.263       .  A
O650        V652   1.905       .  S
O650        C653   1.267       .  A
V651        V652   2.087       .  T
C653        C737   1.471       .  S
C654        C707   1.472       .  S
C655        C711   1.480       .  S
C656        C731   1.476       .  S
O657        C667   1.266       .  A
O658        V665   1.913       .  S
O658       C1740   1.270   1_545  A
O659        V665   1.901       .  S
O659       C1741   1.266   1_545  A
O660        C670   1.262       .  A
O661        V666   1.909       .  S
O661       C1742   1.268       .  A
O662        C669   1.263       .  A
O663        C668   1.263       .  A
O664        V666   1.911       .  S
O664       C1739   1.268       .  A
V665       V1202   2.087   1_546  T
V666       V1201   2.087       .  T
C667       O1736   1.268   1_545  A
C667        C701   1.485       .  S
C668       O1730   1.270       .  A
C668        C679   1.479       .  S
C669       O1731   1.266       .  A
C669        C675   1.467       .  S
C670       O1733   1.268   1_545  A
C670        C705   1.474       .  S
C671       C2064   1.489       .  S
C671        N672   1.355       .  A
C671        N676   1.352       .  A
N672        C673   1.357       .  A
C673        N674   1.366       .  A
N674        C675   1.366       .  A
C675        N676   1.355       .  A
C677       C2049   1.488       .  S
C677        N678   1.355       .  A
C677        N682   1.349       .  A
N678        C679   1.357       .  A
C679        N680   1.373       .  A
N680        C681   1.370       .  A
C681        N682   1.351       .  A
O683        V691   1.906       .  S
O683        C693   1.267       .  A
O684        V691   1.910       .  S
O684        C694   1.263       .  A
O685        V691   1.924       .  S
O685        C695   1.267       .  A
O686        V691   1.914       .  S
O686        C696   1.270       .  A
O687        V692   1.904       .  S
O687        C696   1.261       .  A
O688        V692   1.904       .  S
O688        C695   1.267       .  A
O689        V692   1.908       .  S
O689        C694   1.268       .  A
O690        V692   1.911       .  S
O690        C693   1.264       .  A
V691        V692   2.086       .  T
C693        C743   1.473       .  S
C694        C699   1.475       .  S
C695        C719   1.483       .  S
C696        C723   1.475       .  S
C697       C2037   1.473   1_545  S
C697        N698   1.350       .  A
C697        N702   1.356       .  A
N698        C699   1.354       .  A
C699        N700   1.370       .  A
N700        C701   1.372       .  A
C701        N702   1.362       .  A
C703       C2028   1.466   1_545  S
C703        N704   1.353       .  A
C703        N708   1.351       .  A
N704        C705   1.358       .  A
C705        N706   1.370       .  A
N706        C707   1.368       .  A
C707        N708   1.354       .  A
C709        C941   1.466       .  S
C709        N710   1.350       .  A
C709        N714   1.350       .  A
N710        C711   1.356       .  A
C711        N712   1.374       .  A
N712        C713   1.374       .  A
C713        N714   1.356       .  A
C715        C929   1.478       .  S
C715        N716   1.350       .  A
C715        N720   1.352       .  A
N716        C717   1.354       .  A
C717        N718   1.375       .  A
N718        C719   1.373       .  A
C719        N720   1.355       .  A
C721       C1989   1.485   1_545  S
C721        N722   1.353       .  A
C721        N726   1.353       .  A
N722        C723   1.353       .  A
C723        N724   1.371       .  A
N724        C725   1.371       .  A
C725        N726   1.356       .  A
C727       C1977   1.488   1_545  S
C727        N728   1.351       .  A
C727        N732   1.354       .  A
N728        C729   1.354       .  A
C729        N730   1.371       .  A
N730        C731   1.371       .  A
C731        N732   1.356       .  A
C733        C893   1.486       .  S
C733        N734   1.355       .  A
C733        N738   1.353       .  A
N734        C735   1.359       .  A
C735        N736   1.369       .  A
N736        C737   1.368       .  A
C737        N738   1.353       .  A
C739        C881   1.481       .  S
C739        N740   1.353       .  A
C739        N744   1.352       .  A
N740        C741   1.356       .  A
C741        N742   1.371       .  A
N742        C743   1.370       .  A
C743        N744   1.353       .  A
N745       C2894   1.350   1_455  A
N745        C749   1.349       .  A
N745        H777   1.039       .  S
N746        C753   1.352       .  A
N746        C754   1.352       .  A
N747       C2896   1.354   1_455  A
N747        C751   1.352       .  A
N747        H778   1.037       .  S
N748        C755   1.348       .  A
N748        C756   1.348       .  A
C749        C757   1.388       .  A
C749        C765   1.411       .  A
C750       N2889   1.350       .  A
C750        C766   1.408       .  A
C750        C758   1.386       .  A
C751        C759   1.392       .  A
C751        C768   1.423       .  A
C752       N2891   1.354       .  A
C752        C767   1.414       .  A
C752        C760   1.384       .  A
C753        C765   1.415       .  A
C753        C761   1.385       .  A
C754        C768   1.417       .  A
C754        C762   1.388       .  A
C755        C763   1.387       .  A
C755        C766   1.408       .  A
C756        C764   1.385       .  A
C756        C767   1.406       .  A
C757       C2902   1.376   1_455  A
C757        H769   1.083       .  S
C758       C2901   1.376       .  A
C758        H770   1.083       .  S
C759       C2904   1.368   1_455  A
C759        H771   1.079       .  S
C760       C2903   1.368       .  A
C760        H772   1.082       .  S
C761        C762   1.370       .  A
C761        H773   1.082       .  S
C762        H774   1.081       .  S
C763        C764   1.371       .  A
C763        H775   1.082       .  S
C764        H776   1.082       .  S
C765        C968   1.488       .  S
C766        C953   1.481       .  S
C767        C944   1.488       .  S
C768        C932   1.489       .  S
N779        C784   1.346       .  A
N779        C783   1.347       .  A
N779        H811   1.044       .  S
N780        C787   1.347       .  A
N780        C788   1.346       .  A
N781        C786   1.349       .  A
N781        C785   1.348       .  A
N781        H812   1.043       .  S
N782        C789   1.346       .  A
N782        C790   1.347       .  A
C783        C791   1.384       .  A
C783        C799   1.404       .  A
C784        C800   1.404       .  A
C784        C792   1.386       .  A
C785        C793   1.387       .  A
C785        C802   1.408       .  A
C786        C801   1.408       .  A
C786        C794   1.387       .  A
C787        C799   1.405       .  A
C787        C795   1.382       .  A
C788        C802   1.405       .  A
C788        C796   1.384       .  A
C789        C797   1.381       .  A
C789        C800   1.404       .  A
C790        C798   1.385       .  A
C790        C801   1.404       .  A
C791        C792   1.377       .  A
C791        H803   1.080       .  S
C792        H804   1.081       .  S
C793        C794   1.379       .  A
C793        H805   1.082       .  S
C794        H806   1.082       .  S
C795        C796   1.376       .  A
C795        H807   1.078       .  S
C796        H808   1.080       .  S
C797        C798   1.375       .  A
C797        H809   1.076       .  S
C798        H810   1.083       .  S
C799        C908   1.487       .  S
C800        C920   1.485       .  S
C801        C884   1.484       .  S
C802        C896   1.483       .  S
N813        C818   1.347       .  A
N813        C817   1.349       .  A
N813        H845   1.041       .  S
N814        C821   1.348       .  A
N814        C822   1.346       .  A
N815        C820   1.350       .  A
N815        C819   1.350       .  A
N815        H846   1.042       .  S
N816        C823   1.345       .  A
N816        C824   1.348       .  A
C817        C825   1.387       .  A
C817        C833   1.409       .  A
C818        C834   1.408       .  A
C818        C826   1.387       .  A
C819        C827   1.389       .  A
C819        C836   1.415       .  A
C820        C835   1.409       .  A
C820        C828   1.384       .  A
C821        C833   1.408       .  A
C821        C829   1.386       .  A
C822        C836   1.408       .  A
C822        C830   1.387       .  A
C823        C831   1.387       .  A
C823        C834   1.405       .  A
C824        C832   1.386       .  A
C824        C835   1.406       .  A
C825        C826   1.380       .  A
C825        H837   1.082       .  S
C826        H838   1.083       .  S
C827        C828   1.379       .  A
C827        H839   1.082       .  S
C828        H840   1.082       .  S
C829        C830   1.375       .  A
C829        H841   1.082       .  S
C830        H842   1.082       .  S
C831        C832   1.373       .  A
C831        H843   1.082       .  S
C832        H844   1.082       .  S
C833       C1049   1.486       .  S
C834       C1037   1.475       .  S
C835       C1025   1.491       .  S
C836       C1064   1.490       .  S
N847       C2996   1.350   1_455  A
N847        C851   1.350       .  A
N847        H879   1.045       .  S
N848        C855   1.348       .  A
N848        C856   1.349       .  A
N849       C2998   1.350   1_455  A
N849        C853   1.348       .  A
N849        H880   1.044       .  S
N850        C857   1.346       .  A
N850        C858   1.346       .  A
C851        C859   1.387       .  A
C851        C867   1.411       .  A
C852       N2991   1.350       .  A
C852        C868   1.412       .  A
C852        C860   1.387       .  A
C853        C861   1.386       .  A
C853        C870   1.408       .  A
C854       N2993   1.350       .  A
C854        C869   1.411       .  A
C854        C862   1.388       .  A
C855        C867   1.409       .  A
C855        C863   1.386       .  A
C856        C870   1.411       .  A
C856        C864   1.387       .  A
C857        C865   1.387       .  A
C857        C868   1.406       .  A
C858        C866   1.386       .  A
C858        C869   1.406       .  A
C859       C3004   1.378   1_455  A
C859        H871   1.082       .  S
C860       C3003   1.378       .  A
C860        H872   1.082       .  S
C861       C3006   1.378   1_455  A
C861        H873   1.082       .  S
C862       C3005   1.378       .  A
C862        H874   1.082       .  S
C863        C864   1.375       .  A
C863        H875   1.082       .  S
C864        H876   1.082       .  S
C865        C866   1.375       .  A
C865        H877   1.082       .  S
C866        H878   1.082       .  S
C867       C1001   1.489       .  S
C868       C1016   1.486       .  S
C869        C980   1.485       .  S
C870        C989   1.489       .  S
C881        C882   1.407       .  A
C881        C886   1.415       .  A
C882        C883   1.396       .  A
C882        H887   1.085       .  S
C883        C884   1.408       .  A
C883        C890   1.444       .  S
C884        C885   1.402       .  A
C885        C886   1.397       .  A
C885        H888   1.085       .  S
C886        C889   1.444       .  S
C889        N891   1.157       .  T
C890        N892   1.157       .  T
C893        C894   1.409       .  A
C893        C898   1.417       .  A
C894        C895   1.396       .  A
C894        H899   1.085       .  S
C895        C896   1.407       .  A
C895        C902   1.444       .  S
C896        C897   1.401       .  A
C897        C898   1.398       .  A
C897        H900   1.085       .  S
C898        C901   1.442       .  S
C901        N903   1.157       .  T
C902        N904   1.157       .  T
C905       C1799   1.488       .  S
C905        C906   1.407       .  A
C905        C910   1.419       .  A
C906        C907   1.397       .  A
C906        H911   1.085       .  S
C907        C908   1.409       .  A
C907        C914   1.441       .  S
C908        C909   1.400       .  A
C909        C910   1.397       .  A
C909        H912   1.085       .  S
C910       C1985   1.443       .  S
C913       C1982   1.443       .  S
C913        N915   1.157       .  T
C914        N916   1.156       .  T
C917       C1793   1.485       .  S
C917        C918   1.407       .  A
C917        C922   1.418       .  A
C918        C919   1.395       .  A
C918       H1995   1.084       .  S
C919        C920   1.408       .  A
C919        C926   1.442       .  S
C920        C921   1.401       .  A
C921        C922   1.397       .  A
C921        H924   1.085       .  S
C922        C925   1.443       .  S
H923       C1990   1.084   1_545  S
C925        N927   1.157       .  T
C926        N928   1.156       .  T
C929        C930   1.406       .  A
C929        C934   1.409       .  A
C930        C931   1.402       .  A
C930        H935   1.084       .  S
C931        C932   1.414       .  A
C931        C938   1.444       .  S
C932        C933   1.399       .  A
C933        C934   1.389       .  A
C933        H936   1.086       .  S
C934        C937   1.436       .  S
C937        N939   1.154       .  T
C941        C942   1.400       .  A
C941        C946   1.407       .  A
C942        C943   1.399       .  A
C942        H947   1.082       .  S
C943        C944   1.413       .  A
C943        C950   1.444       .  S
C944        C945   1.403       .  A
C945        C946   1.395       .  A
C945        H948   1.085       .  S
C946        C949   1.439       .  S
C949        N951   1.155       .  T
C950        N952   1.157       .  T
C953        C954   1.400       .  A
C953        C958   1.409       .  A
C954        C955   1.396       .  A
C954        H959   1.085       .  S
C955        C956   1.410       .  A
C955       C2034   1.443       .  S
C956       C1775   1.466       .  S
C956        C957   1.402       .  A
C957        C958   1.398       .  A
C957        H960   1.082       .  S
C958        C961   1.444       .  S
C961        N963   1.157       .  T
C962       C2027   1.443   1_545  S
C962        N964   1.156       .  T
C965       C1769   1.473       .  S
C965        C966   1.404       .  A
C965        C970   1.411       .  A
C966        C967   1.403       .  A
C966        H971   1.080       .  S
C967        C968   1.409       .  A
C967        C974   1.444       .  S
C968        C969   1.401       .  A
C969        C970   1.396       .  A
C969        H972   1.085       .  S
C970        C973   1.442       .  S
C973       N1511   1.156       .  T
C974        N976   1.157       .  T
N975       C1509   1.156       .  T
C977       C1749   1.488   1_545  S
C977        C978   1.408       .  A
C977        C982   1.421       .  A
C978        C979   1.397       .  A
C978        H983   1.084       .  S
C979        C980   1.410       .  A
C979        C986   1.445       .  S
C980        C981   1.399       .  A
C981        C982   1.395       .  A
C981        H984   1.086       .  S
C982        C985   1.443   1_545  S
C985       N2059   1.157       .  T
N987       C2057   1.157       .  T
C989        C990   1.400       .  A
C989        C994   1.411       .  A
C990        C991   1.397       .  A
C990        H995   1.085       .  S
C991        C992   1.419       .  A
C991        C998   1.443       .  S
C992       C1743   1.489   1_545  S
C992        C993   1.408       .  A
C993        C994   1.398       .  A
C993       H2068   1.084   1_545  S
C994        C997   1.446       .  S
H996       C2065   1.084       .  S
C997        N999   1.157       .  T
C998       N1000   1.157       .  T
C1001      C1002   1.402       .  A
C1001      C1006   1.411       .  A
C1002      C1003   1.397       .  A
C1002      H1007   1.085       .  S
C1003      C1004   1.417       .  A
C1003      C1010   1.441       .  S
C1004      C1005   1.407       .  A
C1005      C1006   1.398       .  A
C1005      H1008   1.085       .  S
C1006      C1009   1.444       .  S
C1009      N1011   1.157   1_556  T
C1010      N1012   1.156       .  T
C1013      C1014   1.409       .  A
C1013      C1018   1.419       .  A
C1014      C1015   1.399       .  A
C1014      H1019   1.084       .  S
C1015      C1016   1.409       .  A
C1015      C1022   1.445       .  S
C1016      C1017   1.400       .  A
C1017      C1018   1.395       .  A
C1017      H1020   1.086       .  S
C1018      C1021   1.445       .  S
C1021      N1023   1.157       .  T
C1022      N1024   1.157       .  T
C1025      C1026   1.404       .  A
C1025      C1030   1.415       .  A
C1026      C1027   1.398       .  A
C1026      H1031   1.085       .  S
C1027      C1028   1.410       .  A
C1027      C1034   1.443       .  S
C1028      C1683   1.468   1_545  S
C1028      C1029   1.400       .  A
C1029      C1030   1.398       .  A
C1029      H2104   1.085   1_545  S
C1030      C1033   1.443       .  S
H1032      C2101   1.085       .  S
C1033      N1035   1.157       .  T
C1034      N1036   1.156       .  T
C1037      C1038   1.396       .  A
C1037      C1042   1.410       .  A
C1038      C1039   1.389       .  A
C1038      H1043   1.086       .  S
C1039      C1040   1.408       .  A
C1039      C1046   1.438       .  S
C1040      C1677   1.462   1_545  S
C1040      C1041   1.403       .  A
C1041      C1042   1.400       .  A
C1041      H1044   1.084   1_545  S
C1042      C1045   1.443       .  S
C1045      N1047   1.157       .  T
C1046      N1048   1.155       .  T
C1049      C1050   1.404       .  A
C1049      C1054   1.413       .  A
C1050      C1051   1.395       .  A
C1050      H1055   1.085       .  S
C1051      C1052   1.408       .  A
C1051      C1058   1.443       .  S
C1052      C1053   1.402       .  A
C1053      C1054   1.398       .  A
C1053      H1056   1.085       .  S
C1054      C1057   1.444       .  S
C1057      N1059   1.157       .  T
C1058      N1060   1.157       .  T
C1061      C1062   1.403       .  A
C1061      C1066   1.412       .  A
C1062      C1063   1.400       .  A
C1062      H1067   1.085       .  S
C1063      C1064   1.416       .  A
C1063      C1070   1.445       .  S
C1064      C1065   1.402       .  A
C1065      C1066   1.392       .  A
C1065      H1068   1.085       .  S
C1066      C1069   1.442       .  S
C1069      N1071   1.157       .  T
C1070      N1072   1.157       .  T
O1073      V1081   1.909       .  S
O1073      C1083   1.263       .  A
O1074      V1081   1.914       .  S
O1074      C1084   1.269       .  A
O1075      V1081   1.910       .  S
O1075      C1085   1.268       .  A
O1076      V1081   1.912       .  S
O1076      C1086   1.264       .  A
O1077      V1082   1.906       .  S
O1077      C1086   1.268       .  A
O1078      V1082   1.905       .  S
O1078      C1085   1.263       .  A
O1079      V1082   1.912       .  S
O1079      C1084   1.264       .  A
O1080      V1082   1.906       .  S
O1080      C1083   1.267       .  A
V1081      V1082   2.087       .  T
C1083      C1171   1.473       .  S
C1084      C1151   1.482       .  S
C1085      C1119   1.475       .  S
C1086      C1217   1.475       .  S
O1087      V1095   1.907       .  S
O1087      C1097   1.263       .  A
O1088      V1095   1.907       .  S
O1088      C1098   1.268       .  A
O1089      V1095   1.900       .  S
O1089      C1099   1.265       .  A
O1090      V1095   1.902       .  S
O1090      C1100   1.262       .  A
O1091      V1096   1.909       .  S
O1091      C1100   1.268       .  A
O1092      V1096   1.909       .  S
O1092      C1099   1.264       .  A
O1093      V1096   1.917       .  S
O1093      C1098   1.265       .  A
O1094      V1096   1.913       .  S
O1094      C1097   1.269       .  A
V1095      V1096   2.087       .  T
C1097      C1145   1.478       .  S
C1098      C1175   1.481       .  S
C1099      C1209   1.470       .  S
C1100      C1123   1.472       .  S
O1101      V1109   1.909       .  S
O1101      C1111   1.269       .  A
O1102      V3253   1.912       .  S
O1102      C1112   1.265       .  A
O1103      V1109   1.904       .  S
O1103      C1113   1.261       .  A
O1104      V3253   1.898       .  S
O1104      C1114   1.265       .  A
O1105      V3254   1.907       .  S
O1105      C1114   1.263       .  A
O1106      V1110   1.909       .  S
O1106      C1113   1.269       .  A
O1107      V3254   1.903       .  S
O1107      C1112   1.266       .  A
O1108      V1110   1.902       .  S
O1108      C1111   1.261       .  A
V1109      O3246   1.912   1_455  S
V1109      O3248   1.898   1_455  S
V1109      V1110   2.087       .  T
V1110      O3249   1.907   1_455  S
V1110      O3251   1.903   1_455  S
C1111      C1125   1.471       .  S
C1112      C1271   1.475       .  S
C1113      C1277   1.474       .  S
C1114      C1117   1.465       .  S
C1115      C1597   1.473       .  S
C1115      N1116   1.349       .  A
C1115      N1120   1.356       .  A
N1116      C1117   1.352       .  A
C1117      N1118   1.366       .  A
N1118      C1119   1.368       .  A
C1119      N1120   1.360       .  A
C1121      C1588   1.467       .  S
C1121      N1122   1.353       .  A
C1121      N1126   1.351       .  A
N1122      C1123   1.356       .  A
C1123      N1124   1.370       .  A
N1124      C1125   1.369       .  A
C1125      N1126   1.353       .  A
O1127      V3279   1.908       .  S
O1128      V1135   1.906       .  S
O1128      C1138   1.263       .  A
O1129      V3279   1.913       .  S
O1129      C1139   1.264       .  A
O1130      V1135   1.910       .  S
O1131      V1136   1.912       .  S
O1131      C1140   1.264       .  A
O1132      V3280   1.905       .  S
O1133      V1136   1.900       .  S
O1134      V3280   1.907       .  S
O1134      C1137   1.262       .  A
V1135      O3271   1.908   1_455  S
V1135      O3273   1.913   1_455  S
V1136      O3276   1.905   1_455  S
V1136      O3278   1.907   1_455  S
C1137      C1265   1.474       .  S
C1138      C1143   1.465       .  S
C1139      C1149   1.476       .  S
C1140      C1261   1.479       .  S
C1141      N1142   1.346       .  A
C1141      N1146   1.355       .  A
N1142      C1143   1.350       .  A
C1143      N1144   1.368       .  A
N1144      C1145   1.371       .  A
C1145      N1146   1.360       .  A
C1147      N1148   1.348       .  A
C1147      N1152   1.353       .  A
N1148      C1149   1.353       .  A
C1149      N1150   1.373       .  A
N1150      C1151   1.375       .  A
C1151      N1152   1.357       .  A
O1153      V1161   1.915       .  S
O1153      C1163   1.270       .  A
O1154      V1697   1.918   1_554  S
O1154      C1164   1.266       .  A
O1155      V1697   1.907   1_554  S
O1155      C1165   1.262       .  A
O1156      V1161   1.903       .  S
O1156      C1166   1.267       .  A
O1157      V1698   1.912       .  S
O1157      C1166   1.264       .  A
O1158      V1162   1.912       .  S
O1158      C1165   1.270       .  A
O1159      V1162   1.905       .  S
O1159      C1164   1.267       .  A
O1160      V1698   1.909       .  S
O1160      C1163   1.262       .  A
V1161      O1690   1.918       .  S
V1161      O1691   1.908       .  S
V1161      V1698   2.086       .  T
V1162      O1693   1.914   1_554  S
V1162      O1696   1.909   1_554  S
V1162      V1697   2.086   1_554  T
C1163      C1177   1.478       .  S
C1164      C1249   1.480       .  S
C1165      C1253   1.475       .  S
C1166      C1169   1.473       .  S
C1167      C1549   1.487       .  S
C1167      N1168   1.350       .  A
C1167      N1172   1.354       .  A
N1168      C1169   1.353       .  A
C1169      N1170   1.370       .  A
N1170      C1171   1.370       .  A
C1171      N1172   1.356       .  A
C1173      C1540   1.487       .  S
C1173      N1174   1.352       .  A
C1173      N1178   1.354       .  A
N1174      C1175   1.355       .  A
C1175      N1176   1.372       .  A
N1176      C1177   1.373       .  A
C1177      N1178   1.355       .  A
O1179      V1187   1.907       .  S
O1179      C1189   1.262       .  A
O1180      V1187   1.904       .  S
O1180      C1190   1.267       .  A
O1181      V1187   1.907       .  S
O1181      C1191   1.268       .  A
O1182      V1187   1.907       .  S
O1182      C1192   1.263       .  A
O1183      V1188   1.909       .  S
O1183      C1192   1.268       .  A
O1184      V1188   1.916       .  S
O1184      C1191   1.265       .  A
O1185      V1188   1.910       .  S
O1185      C1190   1.264       .  A
O1186      V1188   1.908       .  S
O1186      C1189   1.268       .  A
V1187      V1188   2.087       .  T
C1189      C1273   1.471       .  S
C1190      C1243   1.473       .  S
C1191      C1247   1.479       .  S
C1192      C1267   1.474       .  S
O1193      V1737   1.916   1_554  S
O1193      C1203   1.266       .  A
O1194      V1201   1.913       .  S
O1195      V1201   1.902       .  S
O1196      V1737   1.904   1_554  S
O1196      C1206   1.262       .  A
O1197      V1202   1.909       .  S
O1198      V1738   1.907       .  S
O1198      C1205   1.263       .  A
O1199      V1738   1.910       .  S
O1199      C1204   1.263       .  A
O1200      V1202   1.912       .  S
V1201      O1729   1.916       .  S
V1201      O1732   1.904       .  S
V1202      O1734   1.906   1_554  S
V1202      O1735   1.909   1_554  S
C1203      C1237   1.486       .  S
C1204      C1215   1.480       .  S
C1205      C1211   1.469       .  S
C1206      C1241   1.475       .  S
C1207      N1208   1.354       .  A
C1207      N1212   1.353       .  A
N1208      C1209   1.357       .  A
C1209      N1210   1.366       .  A
N1210      C1211   1.367       .  A
C1211      N1212   1.355       .  A
C1213      N1214   1.356       .  A
C1213      N1218   1.349       .  A
N1214      C1215   1.357       .  A
C1215      N1216   1.373       .  A
N1216      C1217   1.371       .  A
C1217      N1218   1.351       .  A
O1219      V1227   1.906       .  S
O1219      C1229   1.267       .  A
O1220      V1227   1.911       .  S
O1220      C1230   1.263       .  A
O1221      V1227   1.926       .  S
O1221      C1231   1.267       .  A
O1222      V1227   1.915       .  S
O1222      C1232   1.270       .  A
O1223      V1228   1.903       .  S
O1223      C1232   1.261       .  A
O1224      V1228   1.906       .  S
O1224      C1231   1.268       .  A
O1225      V1228   1.910       .  S
O1225      C1230   1.269       .  A
O1226      V1228   1.912       .  S
O1226      C1229   1.264       .  A
V1227      V1228   2.086       .  T
C1229      C1279   1.474       .  S
C1230      C1235   1.478       .  S
C1231      C1255   1.486       .  S
C1232      C1259   1.475       .  S
C1233      N1234   1.351       .  A
C1233      N1238   1.356       .  A
N1234      C1235   1.355       .  A
C1235      N1236   1.370       .  A
N1236      C1237   1.373       .  A
C1237      N1238   1.362       .  A
C1239      N1240   1.353       .  A
C1239      N1244   1.351       .  A
N1240      C1241   1.358       .  A
C1241      N1242   1.370       .  A
N1242      C1243   1.368       .  A
C1243      N1244   1.355       .  A
C1245      C1477   1.465       .  S
C1245      N1246   1.350       .  A
C1245      N1250   1.350       .  A
N1246      C1247   1.356       .  A
C1247      N1248   1.374       .  A
N1248      C1249   1.374       .  A
C1249      N1250   1.356       .  A
C1251      C1465   1.477       .  S
C1251      N1252   1.349       .  A
C1251      N1256   1.353       .  A
N1252      C1253   1.354       .  A
C1253      N1254   1.375       .  A
N1254      C1255   1.374       .  A
C1255      N1256   1.356       .  A
C1257      N1258   1.353       .  A
C1257      N1262   1.353       .  A
N1258      C1259   1.353       .  A
C1259      N1260   1.371       .  A
N1260      C1261   1.371       .  A
C1261      N1262   1.356       .  A
C1263      N1264   1.353       .  A
C1263      N1268   1.354       .  A
N1264      C1265   1.355       .  A
C1265      N1266   1.370       .  A
N1266      C1267   1.369       .  A
C1267      N1268   1.355       .  A
C1269      C1429   1.487       .  S
C1269      N1270   1.355       .  A
C1269      N1274   1.352       .  A
N1270      C1271   1.358       .  A
C1271      N1272   1.369       .  A
N1272      C1273   1.368       .  A
C1273      N1274   1.353       .  A
C1275      C1417   1.480       .  S
C1275      N1276   1.352       .  A
C1275      N1280   1.352       .  A
N1276      C1277   1.355       .  A
C1277      N1278   1.372       .  A
N1278      C1279   1.371       .  A
C1279      N1280   1.353       .  A
N1281      C3430   1.349   1_455  A
N1281      C1285   1.349       .  A
N1281      H1313   1.041       .  S
N1282      C1289   1.351       .  A
N1282      C1290   1.351       .  A
N1283      C3432   1.353   1_455  A
N1283      C1287   1.352       .  A
N1283      H1314   1.040       .  S
N1284      C1291   1.348       .  A
N1284      C1292   1.348       .  A
C1285      C1293   1.388       .  A
C1285      C1301   1.410       .  A
C1286      N3425   1.349       .  A
C1286      C1302   1.407       .  A
C1286      C1294   1.386       .  A
C1287      C1295   1.392       .  A
C1287      C1304   1.422       .  A
C1288      N3427   1.353       .  A
C1288      C1303   1.413       .  A
C1288      C1296   1.384       .  A
C1289      C1301   1.415       .  A
C1289      C1297   1.385       .  A
C1290      C1304   1.416       .  A
C1290      C1298   1.388       .  A
C1291      C1299   1.387       .  A
C1291      C1302   1.408       .  A
C1292      C1300   1.385       .  A
C1292      C1303   1.406       .  A
C1293      C3438   1.376   1_455  A
C1293      H1305   1.082       .  S
C1294      C3437   1.376       .  A
C1294      H1306   1.083       .  S
C1295      C3440   1.369   1_455  A
C1295      H1307   1.080       .  S
C1296      C3439   1.369       .  A
C1296      H1308   1.082       .  S
C1297      C1298   1.370       .  A
C1297      H1309   1.082       .  S
C1298      H1310   1.081       .  S
C1299      C1300   1.372       .  A
C1299      H1311   1.082       .  S
C1300      H1312   1.082       .  S
C1301      C1504   1.488       .  S
C1302      C1489   1.483       .  S
C1303      C1480   1.487       .  S
C1304      C1468   1.488       .  S
N1315      C1320   1.346       .  A
N1315      C1319   1.347       .  A
N1315      H1347   1.044       .  S
N1316      C1323   1.348       .  A
N1316      C1324   1.346       .  A
N1317      C1322   1.349       .  A
N1317      C1321   1.348       .  A
N1317      H1348   1.043       .  S
N1318      C1325   1.346       .  A
N1318      C1326   1.347       .  A
C1319      C1327   1.385       .  A
C1319      C1335   1.404       .  A
C1320      C1336   1.404       .  A
C1320      C1328   1.386       .  A
C1321      C1329   1.387       .  A
C1321      C1338   1.408       .  A
C1322      C1337   1.408       .  A
C1322      C1330   1.387       .  A
C1323      C1335   1.405       .  A
C1323      C1331   1.381       .  A
C1324      C1338   1.405       .  A
C1324      C1332   1.384       .  A
C1325      C1333   1.380       .  A
C1325      C1336   1.404       .  A
C1326      C1334   1.385       .  A
C1326      C1337   1.405       .  A
C1327      C1328   1.376       .  A
C1327      H1339   1.081       .  S
C1328      H1340   1.081       .  S
C1329      C1330   1.379       .  A
C1329      H1341   1.082       .  S
C1330      H1342   1.082       .  S
C1331      C1332   1.375       .  A
C1331      H1343   1.078       .  S
C1332      H1344   1.080       .  S
C1333      C1334   1.375       .  A
C1333      H1345   1.075       .  S
C1334      H1346   1.083       .  S
C1335      C1444   1.487       .  S
C1336      C1456   1.484       .  S
C1337      C1420   1.484       .  S
C1338      C1432   1.483       .  S
N1349      C1354   1.347       .  A
N1349      C1353   1.348       .  A
N1349      H1381   1.041       .  S
N1350      C1357   1.348       .  A
N1350      C1358   1.346       .  A
N1351      C1356   1.350       .  A
N1351      C1355   1.350       .  A
N1351      H1382   1.042       .  S
N1352      C1359   1.345       .  A
N1352      C1360   1.348       .  A
C1353      C1361   1.387       .  A
C1353      C1369   1.409       .  A
C1354      C1370   1.408       .  A
C1354      C1362   1.387       .  A
C1355      C1363   1.388       .  A
C1355      C1372   1.414       .  A
C1356      C1371   1.409       .  A
C1356      C1364   1.385       .  A
C1357      C1369   1.407       .  A
C1357      C1365   1.386       .  A
C1358      C1372   1.407       .  A
C1358      C1366   1.386       .  A
C1359      C1367   1.387       .  A
C1359      C1370   1.406       .  A
C1360      C1368   1.386       .  A
C1360      C1371   1.406       .  A
C1361      C1362   1.380       .  A
C1361      H1373   1.082       .  S
C1362      H1374   1.083       .  S
C1363      C1364   1.379       .  A
C1363      H1375   1.082       .  S
C1364      H1376   1.082       .  S
C1365      C1366   1.374       .  A
C1365      H1377   1.082       .  S
C1366      H1378   1.082       .  S
C1367      C1368   1.374       .  A
C1367      H1379   1.082       .  S
C1368      H1380   1.082       .  S
C1369      C1585   1.486       .  S
C1370      C1573   1.476       .  S
C1371      C1561   1.490       .  S
C1372      C1600   1.491       .  S
N1383      C3532   1.350   1_455  A
N1383      C1387   1.350       .  A
N1383      H1415   1.043       .  S
N1384      C1391   1.349       .  A
N1384      C1392   1.349       .  A
N1385      C3534   1.350   1_455  A
N1385      C1389   1.348       .  A
N1385      H1416   1.041       .  S
N1386      C1393   1.345       .  A
N1386      C1394   1.345       .  A
C1387      C1395   1.387       .  A
C1387      C1403   1.411       .  A
C1388      N3527   1.350       .  A
C1388      C1404   1.411       .  A
C1388      C1396   1.387       .  A
C1389      C1397   1.386       .  A
C1389      C1406   1.408       .  A
C1390      N3529   1.350       .  A
C1390      C1405   1.412       .  A
C1390      C1398   1.388       .  A
C1391      C1403   1.409       .  A
C1391      C1399   1.386       .  A
C1392      C1406   1.411       .  A
C1392      C1400   1.387       .  A
C1393      C1401   1.387       .  A
C1393      C1404   1.406       .  A
C1394      C1402   1.387       .  A
C1394      C1405   1.405       .  A
C1395      C3540   1.378   1_455  A
C1395      H1407   1.082       .  S
C1396      C3539   1.378       .  A
C1396      H1408   1.082       .  S
C1397      C3542   1.378   1_455  A
C1397      H1409   1.082       .  S
C1398      C3541   1.378       .  A
C1398      H1410   1.082       .  S
C1399      C1400   1.376       .  A
C1399      H1411   1.082       .  S
C1400      H1412   1.082       .  S
C1401      C1402   1.375       .  A
C1401      H1413   1.082       .  S
C1402      H1414   1.082       .  S
C1403      C1537   1.490       .  S
C1404      C1552   1.485       .  S
C1405      C1516   1.486       .  S
C1406      C1525   1.489       .  S
C1417      C1418   1.407       .  A
C1417      C1422   1.415       .  A
C1418      C1419   1.394       .  A
C1418      H1423   1.085       .  S
C1419      C1420   1.408       .  A
C1419      C1426   1.444       .  S
C1420      C1421   1.403       .  A
C1421      C1422   1.397       .  A
C1421      H1424   1.085       .  S
C1422      C1425   1.443       .  S
C1425      N1427   1.157       .  T
C1426      N1428   1.157       .  T
C1429      C1430   1.409       .  A
C1429      C1434   1.417       .  A
C1430      C1431   1.396       .  A
C1430      H1435   1.085       .  S
C1431      C1432   1.407       .  A
C1431      C1438   1.444       .  S
C1432      C1433   1.401       .  A
C1433      C1434   1.398       .  A
C1433      H1436   1.085       .  S
C1434      C1437   1.443       .  S
C1437      N1439   1.157       .  T
C1438      N1440   1.157       .  T
C1441      C1442   1.408       .  A
C1441      C1446   1.418       .  A
C1442      C1443   1.398       .  A
C1442      H1447   1.085   1_565  S
C1443      C1444   1.409       .  A
C1443      C1450   1.442       .  S
C1444      C1445   1.400       .  A
C1445      C1446   1.397       .  A
C1445      H1448   1.085       .  S
C1449      N1451   1.157       .  T
C1450      N1452   1.156       .  T
C1453      C1454   1.407       .  A
C1453      C1458   1.417       .  A
C1454      C1455   1.395       .  A
C1455      C1456   1.408       .  A
C1455      C1462   1.443       .  S
C1456      C1457   1.401       .  A
C1457      C1458   1.397       .  A
C1457      H1460   1.085       .  S
C1458      C1461   1.442       .  S
C1461      N1463   1.156       .  T
C1462      N1464   1.156       .  T
C1465      C1466   1.406       .  A
C1465      C1470   1.408       .  A
C1466      C1467   1.403       .  A
C1466      H1471   1.084       .  S
C1467      C1468   1.413       .  A
C1467      C1474   1.444       .  S
C1468      C1469   1.399       .  A
C1469      C1470   1.389       .  A
C1469      H1472   1.086       .  S
C1470      C1473   1.435       .  S
C1473      N1475   1.154       .  T
C1474      N2012   1.157   1_554  T
N1476      C2010   1.157       .  T
C1477      C1478   1.400       .  A
C1477      C1482   1.407       .  A
C1478      C1479   1.398       .  A
C1478      H1483   1.081       .  S
C1479      C1480   1.413       .  A
C1479      C1486   1.444       .  S
C1480      C1481   1.403       .  A
C1481      C1482   1.395       .  A
C1481      H1484   1.085       .  S
C1482      C1485   1.440       .  S
C1485      N1487   1.156       .  T
C1486      N1488   1.157       .  T
C1489      C1490   1.402       .  A
C1489      C1494   1.408       .  A
C1490      C1491   1.397       .  A
C1490      H1495   1.085       .  S
C1491      C1492   1.410       .  A
C1492      C1493   1.402       .  A
C1493      C1494   1.398       .  A
C1493      H1496   1.081       .  S
C1494      C1497   1.444       .  S
C1497      N1499   1.157       .  T
C1498      N1500   1.157       .  T
C1501      C1502   1.405       .  A
C1501      C1506   1.411       .  A
C1502      C1503   1.403       .  A
C1502      H1507   1.080       .  S
C1503      C1504   1.408       .  A
C1503      C1510   1.444       .  S
C1504      C1505   1.401       .  A
C1505      C1506   1.396       .  A
C1505      H1508   1.085       .  S
C1506      C1509   1.442   1_565  S
C1510      N1512   1.157       .  T
C1513      C1514   1.408       .  A
C1513      C1518   1.421       .  A
C1514      C1515   1.397       .  A
C1514      H1519   1.084       .  S
C1515      C1516   1.411       .  A
C1515      C1522   1.445       .  S
C1516      C1517   1.398       .  A
C1517      C1518   1.394       .  A
C1517      H1520   1.086       .  S
C1518      C1521   1.443       .  S
C1522      N2060   1.157       .  T
N1524      C2058   1.157       .  T
C1525      C1526   1.400       .  A
C1525      C1530   1.412       .  A
C1526      C1527   1.397       .  A
C1526      H1531   1.085       .  S
C1527      C1528   1.418       .  A
C1527      C1534   1.443       .  S
C1528      C1529   1.408       .  A
C1529      C1530   1.399       .  A
C1530      C1533   1.446       .  S
C1533      N1535   1.157       .  T
C1534      N1536   1.157       .  T
C1537      C1538   1.402       .  A
C1537      C1542   1.411       .  A
C1538      C1539   1.397       .  A
C1538      H1543   1.085       .  S
C1539      C1540   1.417       .  A
C1539      C1546   1.442       .  S
C1540      C1541   1.408       .  A
C1541      C1542   1.398       .  A
C1541      H1544   1.085       .  S
C1542      C1545   1.444       .  S
C1545      N1547   1.157       .  T
C1546      N1548   1.156       .  T
C1549      C1550   1.409       .  A
C1549      C1554   1.419       .  A
C1550      C1551   1.398       .  A
C1550      H1555   1.084       .  S
C1551      C1552   1.408       .  A
C1551      C1558   1.445       .  S
C1552      C1553   1.400       .  A
C1553      C1554   1.395       .  A
C1553      H1556   1.086       .  S
C1554      C1557   1.444       .  S
C1557      N1559   1.157       .  T
C1558      N1560   1.157       .  T
C1561      C1562   1.404       .  A
C1561      C1566   1.414       .  A
C1562      C1563   1.397       .  A
C1562      H1567   1.085       .  S
C1563      C1564   1.410       .  A
C1563      C1570   1.443       .  S
C1564      C1565   1.399       .  A
C1565      C1566   1.397       .  A
C1566      C1569   1.443       .  S
C1569      N1571   1.157       .  T
C1570      N1572   1.156       .  T
C1573      C1574   1.397       .  A
C1573      C1578   1.410       .  A
C1574      C1575   1.390       .  A
C1574      H1579   1.086       .  S
C1575      C1576   1.409       .  A
C1575      C1582   1.438       .  S
C1576      C1577   1.402       .  A
C1577      C1578   1.400       .  A
C1577      H1580   1.084       .  S
C1578      C1581   1.443       .  S
C1581      N1583   1.157       .  T
C1582      N1584   1.155       .  T
C1585      C1586   1.405       .  A
C1585      C1590   1.413       .  A
C1586      C1587   1.396       .  A
C1586      H1591   1.085       .  S
C1587      C1588   1.409       .  A
C1587      C1594   1.443       .  S
C1588      C1589   1.402       .  A
C1589      C1590   1.397       .  A
C1589      H1592   1.085       .  S
C1590      C1593   1.444       .  S
C1593      N1595   1.157       .  T
C1594      N1596   1.157       .  T
C1597      C1598   1.402       .  A
C1597      C1602   1.412       .  A
C1598      C1599   1.399       .  A
C1598      H1603   1.085       .  S
C1599      C1600   1.416       .  A
C1599      C1606   1.445       .  S
C1600      C1601   1.403       .  A
C1601      C1602   1.394       .  A
C1601      H1604   1.085       .  S
C1602      C1605   1.442       .  S
C1605      N1607   1.157       .  T
C1606      N1608   1.157       .  T
O1609      V1617   1.910       .  S
O1609      C1619   1.263       .  A
O1610      V1617   1.915       .  S
O1610      C1620   1.270       .  A
O1611      V1617   1.910       .  S
O1611      C1621   1.268       .  A
O1612      V1617   1.912       .  S
O1612      C1622   1.263       .  A
O1613      V1618   1.904       .  S
O1613      C1622   1.267       .  A
O1614      V1618   1.903       .  S
O1614      C1621   1.262       .  A
O1615      V1618   1.915       .  S
O1615      C1620   1.265       .  A
O1616      V1618   1.909       .  S
O1616      C1619   1.268       .  A
V1617      V1618   2.087       .  T
C1619      C1707   1.475       .  S
C1620      C1687   1.485       .  S
C1621      C1655   1.473       .  S
C1622      C1753   1.474       .  S
O1623      V1631   1.909       .  S
O1623      C1633   1.264       .  A
O1624      V1631   1.908       .  S
O1624      C1634   1.269       .  A
O1625      V1631   1.899       .  S
O1625      C1635   1.265       .  A
O1626      V1631   1.901       .  S
O1626      C1636   1.261       .  A
O1627      V1632   1.909       .  S
O1627      C1636   1.268       .  A
O1628      V1632   1.910       .  S
O1628      C1635   1.264       .  A
O1629      V1632   1.917       .  S
O1629      C1634   1.265       .  A
O1630      V1632   1.912       .  S
O1630      C1633   1.268       .  A
V1631      V1632   2.087       .  T
C1633      C1681   1.478       .  S
C1634      C1711   1.482       .  S
C1635      C1745   1.470       .  S
C1636      C1659   1.471       .  S
O1637      V1645   1.908       .  S
O1637      C1647   1.268       .  A
O1638      V3789   1.911       .  S
O1638      C1648   1.265       .  A
O1639      V1645   1.904       .  S
O1639      C1649   1.261       .  A
O1640      V3789   1.898       .  S
O1640      C1650   1.265       .  A
O1641      V3790   1.905       .  S
O1641      C1650   1.263       .  A
O1642      V1646   1.908       .  S
O1642      C1649   1.269       .  A
O1643      V3790   1.903       .  S
O1643      C1648   1.266       .  A
O1644      V1646   1.902       .  S
O1644      C1647   1.261       .  A
V1645      O3782   1.911   1_455  S
V1645      O3784   1.898   1_455  S
V1645      V1646   2.088       .  T
V1646      O3785   1.905   1_455  S
V1646      O3787   1.903   1_455  S
C1647      C1661   1.470       .  S
C1648      C1807   1.475       .  S
C1649      C1813   1.474       .  S
C1650      C1653   1.464       .  S
C1651      C2133   1.473       .  S
C1651      N1652   1.350       .  A
C1651      N1656   1.356       .  A
N1652      C1653   1.353       .  A
C1653      N1654   1.365       .  A
N1654      C1655   1.367       .  A
C1655      N1656   1.359       .  A
C1657      C2124   1.466       .  S
C1657      N1658   1.352       .  A
C1657      N1662   1.350       .  A
N1658      C1659   1.355       .  A
C1659      N1660   1.370       .  A
N1660      C1661   1.369       .  A
C1661      N1662   1.353       .  A
O1663      V3815   1.907       .  S
O1664      V1671   1.905       .  S
O1664      C1674   1.262       .  A
O1665      V3815   1.913       .  S
O1665      C1675   1.264       .  A
O1666      V1671   1.909       .  S
O1667      V1672   1.912       .  S
O1667      C1676   1.264       .  A
O1668      V3816   1.908       .  S
O1669      V1672   1.902       .  S
O1670      V3816   1.909       .  S
O1670      C1673   1.263       .  A
V1671      O3807   1.907   1_455  S
V1671      O3809   1.913   1_455  S
V1672      O3812   1.908   1_455  S
V1672      O3814   1.909   1_455  S
C1673      C1801   1.475       .  S
C1674      C1679   1.466       .  S
C1675      C1685   1.478       .  S
C1676      C1797   1.478       .  S
C1677      N1678   1.347       .  A
C1677      N1682   1.355       .  A
N1678      C1679   1.350       .  A
C1679      N1680   1.368       .  A
N1680      C1681   1.371       .  A
C1681      N1682   1.360       .  A
C1683      N1684   1.348       .  A
C1683      N1688   1.354       .  A
N1684      C1685   1.352       .  A
C1685      N1686   1.374       .  A
N1686      C1687   1.375       .  A
C1687      N1688   1.359       .  A
O1689      V1697   1.916       .  S
O1689      C1699   1.270       .  A
O1690      C1700   1.266       .  A
O1691      C1701   1.262       .  A
O1692      V1697   1.903       .  S
O1692      C1702   1.267       .  A
O1693      C1702   1.264       .  A
O1694      V1698   1.910       .  S
O1694      C1701   1.269       .  A
O1695      V1698   1.905       .  S
O1695      C1700   1.267       .  A
O1696      C1699   1.262       .  A
C1699      C1713   1.480       .  S
C1700      C1785   1.480       .  S
C1701      C1789   1.474       .  S
C1702      C1705   1.475       .  S
C1703      C2085   1.488       .  S
C1703      N1704   1.351       .  A
C1703      N1708   1.354       .  A
N1704      C1705   1.353       .  A
C1705      N1706   1.370       .  A
N1706      C1707   1.371       .  A
C1707      N1708   1.357       .  A
C1709      C2076   1.487       .  S
C1709      N1710   1.352       .  A
C1709      N1714   1.354       .  A
N1710      C1711   1.355       .  A
C1711      N1712   1.373       .  A
N1712      C1713   1.374       .  A
C1713      N1714   1.355       .  A
O1715      V1723   1.909       .  S
O1715      C1725   1.263       .  A
O1716      V1723   1.906       .  S
O1716      C1726   1.267       .  A
O1717      V1723   1.909       .  S
O1717      C1727   1.268       .  A
O1718      V1723   1.910       .  S
O1718      C1728   1.263       .  A
O1719      V1724   1.910       .  S
O1719      C1728   1.269       .  A
O1720      V1724   1.915       .  S
O1720      C1727   1.265       .  A
O1721      V1724   1.906       .  S
O1721      C1726   1.263       .  A
O1722      V1724   1.905       .  S
O1722      C1725   1.267       .  A
V1723      V1724   2.087       .  T
C1725      C1809   1.471       .  S
C1726      C1779   1.472       .  S
C1727      C1783   1.480       .  S
C1728      C1803   1.476       .  S
O1729      C1739   1.266       .  A
O1730      V1737   1.913       .  S
O1731      V1737   1.901       .  S
O1732      C1742   1.262       .  A
O1733      V1738   1.909       .  S
O1734      C1741   1.263       .  A
O1735      C1740   1.263       .  A
O1736      V1738   1.911       .  S
C1739      C1773   1.485       .  S
C1740      C1751   1.479       .  S
C1741      C1747   1.467       .  S
C1742      C1777   1.474       .  S
C1743      N1744   1.355       .  A
C1743      N1748   1.352       .  A
N1744      C1745   1.357       .  A
C1745      N1746   1.366       .  A
N1746      C1747   1.366       .  A
C1747      N1748   1.355       .  A
C1749      N1750   1.355       .  A
C1749      N1754   1.349       .  A
N1750      C1751   1.357       .  A
C1751      N1752   1.373       .  A
N1752      C1753   1.370       .  A
C1753      N1754   1.351       .  A
O1755      V1763   1.906       .  S
O1755      C1765   1.267       .  A
O1756      V1763   1.910       .  S
O1756      C1766   1.263       .  A
O1757      V1763   1.924       .  S
O1757      C1767   1.267       .  A
O1758      V1763   1.914       .  S
O1758      C1768   1.270       .  A
O1759      V1764   1.904       .  S
O1759      C1768   1.261       .  A
O1760      V1764   1.904       .  S
O1760      C1767   1.267       .  A
O1761      V1764   1.908       .  S
O1761      C1766   1.268       .  A
O1762      V1764   1.911       .  S
O1762      C1765   1.264       .  A
V1763      V1764   2.086       .  T
C1765      C1815   1.473       .  S
C1766      C1771   1.475       .  S
C1767      C1791   1.483       .  S
C1768      C1795   1.475       .  S
C1769      N1770   1.350       .  A
C1769      N1774   1.356       .  A
N1770      C1771   1.354       .  A
C1771      N1772   1.370       .  A
N1772      C1773   1.372       .  A
C1773      N1774   1.362       .  A
C1775      N1776   1.353       .  A
C1775      N1780   1.351       .  A
N1776      C1777   1.358       .  A
C1777      N1778   1.370       .  A
N1778      C1779   1.368       .  A
C1779      N1780   1.354       .  A
C1781      C2013   1.466       .  S
C1781      N1782   1.350       .  A
C1781      N1786   1.350       .  A
N1782      C1783   1.356       .  A
C1783      N1784   1.374       .  A
N1784      C1785   1.374       .  A
C1785      N1786   1.356       .  A
C1787      C2001   1.478       .  S
C1787      N1788   1.350       .  A
C1787      N1792   1.352       .  A
N1788      C1789   1.354       .  A
C1789      N1790   1.375       .  A
N1790      C1791   1.373       .  A
C1791      N1792   1.355       .  A
C1793      N1794   1.353       .  A
C1793      N1798   1.353       .  A
N1794      C1795   1.353       .  A
C1795      N1796   1.371       .  A
N1796      C1797   1.371       .  A
C1797      N1798   1.356       .  A
C1799      N1800   1.351       .  A
C1799      N1804   1.354       .  A
N1800      C1801   1.354       .  A
C1801      N1802   1.371       .  A
N1802      C1803   1.371       .  A
C1803      N1804   1.356       .  A
C1805      C1965   1.486       .  S
C1805      N1806   1.355       .  A
C1805      N1810   1.353       .  A
N1806      C1807   1.359       .  A
C1807      N1808   1.369       .  A
N1808      C1809   1.368       .  A
C1809      N1810   1.353       .  A
C1811      C1953   1.481       .  S
C1811      N1812   1.353       .  A
C1811      N1816   1.352       .  A
N1812      C1813   1.356       .  A
C1813      N1814   1.371       .  A
N1814      C1815   1.370       .  A
C1815      N1816   1.353       .  A
N1817      C3966   1.350   1_455  A
N1817      C1821   1.349       .  A
N1817      H1849   1.039       .  S
N1818      C1825   1.352       .  A
N1818      C1826   1.352       .  A
N1819      C3968   1.354   1_455  A
N1819      C1823   1.352       .  A
N1819      H1850   1.037       .  S
N1820      C1827   1.348       .  A
N1820      C1828   1.348       .  A
C1821      C1829   1.388       .  A
C1821      C1837   1.411       .  A
C1822      N3961   1.350       .  A
C1822      C1838   1.408       .  A
C1822      C1830   1.386       .  A
C1823      C1831   1.392       .  A
C1823      C1840   1.423       .  A
C1824      N3963   1.354       .  A
C1824      C1839   1.414       .  A
C1824      C1832   1.384       .  A
C1825      C1837   1.415       .  A
C1825      C1833   1.385       .  A
C1826      C1840   1.417       .  A
C1826      C1834   1.388       .  A
C1827      C1835   1.387       .  A
C1827      C1838   1.408       .  A
C1828      C1836   1.385       .  A
C1828      C1839   1.406       .  A
C1829      C3974   1.376   1_455  A
C1829      H1841   1.083       .  S
C1830      C3973   1.376       .  A
C1830      H1842   1.083       .  S
C1831      C3976   1.368   1_455  A
C1831      H1843   1.079       .  S
C1832      C3975   1.368       .  A
C1832      H1844   1.082       .  S
C1833      C1834   1.370       .  A
C1833      H1845   1.082       .  S
C1834      H1846   1.081       .  S
C1835      C1836   1.371       .  A
C1835      H1847   1.082       .  S
C1836      H1848   1.082       .  S
C1837      C2040   1.488       .  S
C1838      C2025   1.481       .  S
C1839      C2016   1.488       .  S
C1840      C2004   1.489       .  S
N1851      C1856   1.346       .  A
N1851      C1855   1.347       .  A
N1851      H1883   1.044       .  S
N1852      C1859   1.347       .  A
N1852      C1860   1.346       .  A
N1853      C1858   1.349       .  A
N1853      C1857   1.348       .  A
N1853      H1884   1.043       .  S
N1854      C1861   1.346       .  A
N1854      C1862   1.347       .  A
C1855      C1863   1.384       .  A
C1855      C1871   1.404       .  A
C1856      C1872   1.404       .  A
C1856      C1864   1.386       .  A
C1857      C1865   1.387       .  A
C1857      C1874   1.408       .  A
C1858      C1873   1.408       .  A
C1858      C1866   1.387       .  A
C1859      C1871   1.405       .  A
C1859      C1867   1.382       .  A
C1860      C1874   1.405       .  A
C1860      C1868   1.384       .  A
C1861      C1869   1.381       .  A
C1861      C1872   1.404       .  A
C1862      C1870   1.385       .  A
C1862      C1873   1.404       .  A
C1863      C1864   1.377       .  A
C1863      H1875   1.080       .  S
C1864      H1876   1.081       .  S
C1865      C1866   1.379       .  A
C1865      H1877   1.082       .  S
C1866      H1878   1.082       .  S
C1867      C1868   1.376       .  A
C1867      H1879   1.078       .  S
C1868      H1880   1.080       .  S
C1869      C1870   1.375       .  A
C1869      H1881   1.076       .  S
C1870      H1882   1.083       .  S
C1871      C1980   1.487       .  S
C1872      C1992   1.485       .  S
C1873      C1956   1.484       .  S
C1874      C1968   1.483       .  S
N1885      C1890   1.347       .  A
N1885      C1889   1.349       .  A
N1885      H1917   1.041       .  S
N1886      C1893   1.348       .  A
N1886      C1894   1.346       .  A
N1887      C1892   1.350       .  A
N1887      C1891   1.350       .  A
N1887      H1918   1.042       .  S
N1888      C1895   1.345       .  A
N1888      C1896   1.348       .  A
C1889      C1897   1.387       .  A
C1889      C1905   1.409       .  A
C1890      C1906   1.408       .  A
C1890      C1898   1.387       .  A
C1891      C1899   1.389       .  A
C1891      C1908   1.415       .  A
C1892      C1907   1.409       .  A
C1892      C1900   1.384       .  A
C1893      C1905   1.408       .  A
C1893      C1901   1.386       .  A
C1894      C1908   1.408       .  A
C1894      C1902   1.387       .  A
C1895      C1903   1.387       .  A
C1895      C1906   1.405       .  A
C1896      C1904   1.386       .  A
C1896      C1907   1.406       .  A
C1897      C1898   1.380       .  A
C1897      H1909   1.082       .  S
C1898      H1910   1.083       .  S
C1899      C1900   1.379       .  A
C1899      H1911   1.082       .  S
C1900      H1912   1.082       .  S
C1901      C1902   1.375       .  A
C1901      H1913   1.082       .  S
C1902      H1914   1.082       .  S
C1903      C1904   1.373       .  A
C1903      H1915   1.082       .  S
C1904      H1916   1.082       .  S
C1905      C2121   1.486       .  S
C1906      C2109   1.475       .  S
C1907      C2097   1.491       .  S
C1908      C2136   1.490       .  S
N1919      C4068   1.350   1_455  A
N1919      C1923   1.350       .  A
N1919      H1951   1.045       .  S
N1920      C1927   1.348       .  A
N1920      C1928   1.349       .  A
N1921      C4070   1.350   1_455  A
N1921      C1925   1.348       .  A
N1921      H1952   1.044       .  S
N1922      C1929   1.346       .  A
N1922      C1930   1.346       .  A
C1923      C1931   1.387       .  A
C1923      C1939   1.411       .  A
C1924      N4063   1.350       .  A
C1924      C1940   1.412       .  A
C1924      C1932   1.387       .  A
C1925      C1933   1.386       .  A
C1925      C1942   1.408       .  A
C1926      N4065   1.350       .  A
C1926      C1941   1.411       .  A
C1926      C1934   1.388       .  A
C1927      C1939   1.409       .  A
C1927      C1935   1.386       .  A
C1928      C1942   1.411       .  A
C1928      C1936   1.387       .  A
C1929      C1937   1.387       .  A
C1929      C1940   1.406       .  A
C1930      C1938   1.387       .  A
C1930      C1941   1.406       .  A
C1931      C4076   1.378   1_455  A
C1931      H1943   1.082       .  S
C1932      C4075   1.378       .  A
C1932      H1944   1.082       .  S
C1933      C4078   1.378   1_455  A
C1933      H1945   1.082       .  S
C1934      C4077   1.378       .  A
C1934      H1946   1.082       .  S
C1935      C1936   1.375       .  A
C1935      H1947   1.082       .  S
C1936      H1948   1.082       .  S
C1937      C1938   1.375       .  A
C1937      H1949   1.082       .  S
C1938      H1950   1.082       .  S
C1939      C2073   1.489       .  S
C1940      C2088   1.486       .  S
C1941      C2052   1.485       .  S
C1942      C2061   1.489       .  S
C1953      C1954   1.407       .  A
C1953      C1958   1.415       .  A
C1954      C1955   1.396       .  A
C1954      H1959   1.085       .  S
C1955      C1956   1.408       .  A
C1955      C1962   1.444       .  S
C1956      C1957   1.402       .  A
C1957      C1958   1.397       .  A
C1957      H1960   1.085       .  S
C1958      C1961   1.444       .  S
C1961      N1963   1.157       .  T
C1962      N1964   1.157       .  T
C1965      C1966   1.409       .  A
C1965      C1970   1.417       .  A
C1966      C1967   1.396       .  A
C1966      H1971   1.085       .  S
C1967      C1968   1.407       .  A
C1967      C1974   1.444       .  S
C1968      C1969   1.401       .  A
C1969      C1970   1.398       .  A
C1969      H1972   1.085       .  S
C1970      C1973   1.442       .  S
C1973      N1975   1.157       .  T
C1974      N1976   1.157       .  T
C1977      C1978   1.407       .  A
C1977      C1982   1.419       .  A
C1978      C1979   1.397       .  A
C1978      H1983   1.085   1_565  S
C1979      C1980   1.409       .  A
C1979      C1986   1.441       .  S
C1980      C1981   1.400       .  A
C1981      C1982   1.397       .  A
C1981      H1984   1.085       .  S
C1985      N1987   1.157       .  T
C1986      N1988   1.156       .  T
C1989      C1990   1.407       .  A
C1989      C1994   1.418       .  A
C1990      C1991   1.395       .  A
C1991      C1992   1.408       .  A
C1991      C1998   1.442       .  S
C1992      C1993   1.401       .  A
C1993      C1994   1.397       .  A
C1993      H1996   1.085       .  S
C1994      C1997   1.443       .  S
C1997      N1999   1.157       .  T
C1998      N2000   1.156       .  T
C2001      C2002   1.406       .  A
C2001      C2006   1.409       .  A
C2002      C2003   1.402       .  A
C2002      H2007   1.084       .  S
C2003      C2004   1.414       .  A
C2003      C2010   1.444       .  S
C2004      C2005   1.399       .  A
C2005      C2006   1.389       .  A
C2005      H2008   1.086       .  S
C2006      C2009   1.436       .  S
C2009      N2011   1.154       .  T
C2013      C2014   1.400       .  A
C2013      C2018   1.407       .  A
C2014      C2015   1.399       .  A
C2014      H2019   1.082       .  S
C2015      C2016   1.413       .  A
C2015      C2022   1.444       .  S
C2016      C2017   1.403       .  A
C2017      C2018   1.395       .  A
C2017      H2020   1.085       .  S
C2018      C2021   1.439       .  S
C2021      N2023   1.155       .  T
C2022      N2024   1.157       .  T
C2025      C2026   1.400       .  A
C2025      C2030   1.409       .  A
C2026      C2027   1.396       .  A
C2026      H2031   1.085       .  S
C2027      C2028   1.410       .  A
C2028      C2029   1.402       .  A
C2029      C2030   1.398       .  A
C2029      H2032   1.082       .  S
C2030      C2033   1.444       .  S
C2033      N2035   1.157       .  T
C2034      N2036   1.156       .  T
C2037      C2038   1.404       .  A
C2037      C2042   1.410       .  A
C2038      C2039   1.403       .  A
C2038      H2043   1.080       .  S
C2039      C2040   1.409       .  A
C2039      C2046   1.444       .  S
C2040      C2041   1.401       .  A
C2041      C2042   1.396       .  A
C2041      H2044   1.085       .  S
C2042      C2045   1.442   1_565  S
C2046      N2048   1.157       .  T
C2049      C2050   1.408       .  A
C2049      C2054   1.421       .  A
C2050      C2051   1.397       .  A
C2050      H2055   1.084       .  S
C2051      C2052   1.410       .  A
C2051      C2058   1.445       .  S
C2052      C2053   1.399       .  A
C2053      C2054   1.395       .  A
C2053      H2056   1.086       .  S
C2054      C2057   1.443       .  S
C2061      C2062   1.400       .  A
C2061      C2066   1.411       .  A
C2062      C2063   1.397       .  A
C2062      H2067   1.085       .  S
C2063      C2064   1.419       .  A
C2063      C2070   1.443       .  S
C2064      C2065   1.408       .  A
C2065      C2066   1.398       .  A
C2066      C2069   1.446       .  S
C2069      N2071   1.157       .  T
C2070      N2072   1.157       .  T
C2073      C2074   1.402       .  A
C2073      C2078   1.411       .  A
C2074      C2075   1.397       .  A
C2074      H2079   1.085       .  S
C2075      C2076   1.417       .  A
C2075      C2082   1.441       .  S
C2076      C2077   1.407       .  A
C2077      C2078   1.398       .  A
C2077      H2080   1.085       .  S
C2078      C2081   1.444       .  S
C2081      N2083   1.157   1_556  T
C2082      N2084   1.156       .  T
C2085      C2086   1.409       .  A
C2085      C2090   1.419       .  A
C2086      C2087   1.399       .  A
C2086      H2091   1.084       .  S
C2087      C2088   1.409       .  A
C2087      C2094   1.445       .  S
C2088      C2089   1.400       .  A
C2089      C2090   1.395       .  A
C2089      H2092   1.086       .  S
C2090      C2093   1.445       .  S
C2093      N2095   1.157       .  T
C2094      N2096   1.157       .  T
C2097      C2098   1.404       .  A
C2097      C2102   1.415       .  A
C2098      C2099   1.398       .  A
C2098      H2103   1.085       .  S
C2099      C2100   1.410       .  A
C2099      C2106   1.443       .  S
C2100      C2101   1.400       .  A
C2101      C2102   1.398       .  A
C2102      C2105   1.443       .  S
C2105      N2107   1.157       .  T
C2106      N2108   1.156       .  T
C2109      C2110   1.396       .  A
C2109      C2114   1.410       .  A
C2110      C2111   1.389       .  A
C2110      H2115   1.086       .  S
C2111      C2112   1.408       .  A
C2111      C2118   1.438       .  S
C2112      C2113   1.403       .  A
C2113      C2114   1.400       .  A
C2113      H2116   1.084       .  S
C2114      C2117   1.443       .  S
C2117      N2119   1.157       .  T
C2118      N2120   1.155       .  T
C2121      C2122   1.404       .  A
C2121      C2126   1.413       .  A
C2122      C2123   1.395       .  A
C2122      H2127   1.085       .  S
C2123      C2124   1.408       .  A
C2123      C2130   1.443       .  S
C2124      C2125   1.402       .  A
C2125      C2126   1.398       .  A
C2125      H2128   1.085       .  S
C2126      C2129   1.444       .  S
C2129      N2131   1.157       .  T
C2130      N2132   1.157       .  T
C2133      C2134   1.403       .  A
C2133      C2138   1.412       .  A
C2134      C2135   1.400       .  A
C2134      H2139   1.085       .  S
C2135      C2136   1.416       .  A
C2135      C2142   1.445       .  S
C2136      C2137   1.402       .  A
C2137      C2138   1.392       .  A
C2137      H2140   1.085       .  S
C2138      C2141   1.442       .  S
C2141      N2143   1.157       .  T
C2142      N2144   1.157       .  T
O2145      V2153   1.909       .  S
O2145      C2155   1.263       .  A
O2146      V2153   1.914       .  S
O2146      C2156   1.269       .  A
O2147      V2153   1.910       .  S
O2147      C2157   1.268       .  A
O2148      V2153   1.912       .  S
O2148      C2158   1.264       .  A
O2149      V2154   1.906       .  S
O2149      C2158   1.268       .  A
O2150      V2154   1.905       .  S
O2150      C2157   1.263       .  A
O2151      V2154   1.912       .  S
O2151      C2156   1.264       .  A
O2152      V2154   1.906       .  S
O2152      C2155   1.267       .  A
V2153      V2154   2.087       .  T
C2155      C2243   1.473       .  S
C2156      C2223   1.482       .  S
C2157      C2191   1.475       .  S
C2158      C2289   1.475       .  S
O2159      V2167   1.907       .  S
O2159      C2169   1.263       .  A
O2160      V2167   1.907       .  S
O2160      C2170   1.268       .  A
O2161      V2167   1.900       .  S
O2161      C2171   1.265       .  A
O2162      V2167   1.902       .  S
O2162      C2172   1.262       .  A
O2163      V2168   1.909       .  S
O2163      C2172   1.268       .  A
O2164      V2168   1.909       .  S
O2164      C2171   1.264       .  A
O2165      V2168   1.917       .  S
O2165      C2170   1.265       .  A
O2166      V2168   1.913       .  S
O2166      C2169   1.269       .  A
V2167      V2168   2.087       .  T
C2169      C2217   1.478       .  S
C2170      C2247   1.481       .  S
C2171      C2281   1.470       .  S
C2172      C2195   1.472       .  S
O2173      V2181   1.909       .  S
O2173      C2183   1.269       .  A
O2174      C2184   1.265       .  A
O2175      V2181   1.904       .  S
O2175      C2185   1.261       .  A
O2176      C2186   1.265       .  A
O2177      C2186   1.263       .  A
O2178      V2182   1.909       .  S
O2178      C2185   1.269       .  A
O2179      C2184   1.266       .  A
O2180      V2182   1.902       .  S
O2180      C2183   1.261       .  A
V2181      V2182   2.087       .  T
C2183      C2197   1.471       .  S
C2184      C2343   1.475       .  S
C2185      C2349   1.474       .  S
C2186      C2189   1.465       .  S
C2187      C2669   1.473       .  S
C2187      N2188   1.349       .  A
C2187      N2192   1.356       .  A
N2188      C2189   1.352       .  A
C2189      N2190   1.366       .  A
N2190      C2191   1.368       .  A
C2191      N2192   1.360       .  A
C2193      C2660   1.467       .  S
C2193      N2194   1.353       .  A
C2193      N2198   1.351       .  A
N2194      C2195   1.356       .  A
C2195      N2196   1.370       .  A
N2196      C2197   1.369       .  A
C2197      N2198   1.353       .  A
O2199      C3281   1.268       .  A
O2200      V2207   1.906       .  S
O2200      C2210   1.263       .  A
O2201      C2211   1.264       .  A
O2202      V2207   1.910       .  S
O2202      C3284   1.269       .  A
O2203      V2208   1.912       .  S
O2203      C2212   1.264       .  A
O2204      C3283   1.268   1_545  A
O2205      V2208   1.900       .  S
O2205      C3282   1.266   1_545  A
O2206      C2209   1.262       .  A
V2207      V3280   2.087       .  T
V2208      V3279   2.087   1_545  T
C2209      O3271   1.268   1_545  A
C2209      C2337   1.474       .  S
C2210      O3277   1.266       .  A
C2210      C2215   1.465       .  S
C2211      O3276   1.268       .  A
C2211      C2221   1.476       .  S
C2212      O3274   1.269   1_545  A
C2212      C2333   1.479       .  S
C2213      C3720   1.463       .  S
C2213      N2214   1.346       .  A
C2213      N2218   1.355       .  A
N2214      C2215   1.350       .  A
C2215      N2216   1.368       .  A
N2216      C2217   1.371       .  A
C2217      N2218   1.360       .  A
C2219      C3708   1.467       .  S
C2219      N2220   1.348       .  A
C2219      N2224   1.353       .  A
N2220      C2221   1.353       .  A
C2221      N2222   1.373       .  A
N2222      C2223   1.375       .  A
C2223      N2224   1.357       .  A
O2225      V2233   1.915       .  S
O2225      C2235   1.270       .  A
O2226      V2769   1.918   1_554  S
O2226      C2236   1.266       .  A
O2227      V2769   1.907   1_554  S
O2227      C2237   1.262       .  A
O2228      V2233   1.903       .  S
O2228      C2238   1.267       .  A
O2229      V2770   1.912       .  S
O2229      C2238   1.264       .  A
O2230      V2234   1.912       .  S
O2230      C2237   1.270       .  A
O2231      V2234   1.905       .  S
O2231      C2236   1.267       .  A
O2232      V2770   1.909       .  S
O2232      C2235   1.262       .  A
V2233      O2762   1.918       .  S
V2233      O2763   1.908       .  S
V2233      V2770   2.086       .  T
V2234      O2765   1.914   1_554  S
V2234      O2768   1.909   1_554  S
V2234      V2769   2.086   1_554  T
C2235      C2249   1.478       .  S
C2236      C2321   1.480       .  S
C2237      C2325   1.475       .  S
C2238      C2241   1.473       .  S
C2239      C2621   1.487       .  S
C2239      N2240   1.350       .  A
C2239      N2244   1.354       .  A
N2240      C2241   1.353       .  A
C2241      N2242   1.370       .  A
N2242      C2243   1.370       .  A
C2243      N2244   1.356       .  A
C2245      C2612   1.487       .  S
C2245      N2246   1.352       .  A
C2245      N2250   1.354       .  A
N2246      C2247   1.355       .  A
C2247      N2248   1.372       .  A
N2248      C2249   1.373       .  A
C2249      N2250   1.355       .  A
O2251      V2259   1.907       .  S
O2251      C2261   1.262       .  A
O2252      V2259   1.904       .  S
O2252      C2262   1.267       .  A
O2253      V2259   1.907       .  S
O2253      C2263   1.268       .  A
O2254      V2259   1.907       .  S
O2254      C2264   1.263       .  A
O2255      V2260   1.909       .  S
O2255      C2264   1.268       .  A
O2256      V2260   1.916       .  S
O2256      C2263   1.265       .  A
O2257      V2260   1.910       .  S
O2257      C2262   1.264       .  A
O2258      V2260   1.908       .  S
O2258      C2261   1.268       .  A
V2259      V2260   2.087       .  T
C2261      C2345   1.471       .  S
C2262      C2315   1.473       .  S
C2263      C2319   1.479       .  S
C2264      C2339   1.474       .  S
O2265      V2809   1.916   1_554  S
O2265      C2275   1.266       .  A
O2266      V2273   1.913       .  S
O2266      C3348   1.270   1_545  A
O2267      V2273   1.902       .  S
O2267      C3349   1.266   1_545  A
O2268      V2809   1.904   1_554  S
O2268      C2278   1.262       .  A
O2269      V2274   1.909       .  S
O2269      C3350   1.268       .  A
O2270      V2810   1.907       .  S
O2270      C2277   1.263       .  A
O2271      V2810   1.910       .  S
O2271      C2276   1.263       .  A
O2272      V2274   1.912       .  S
O2272      C3347   1.268       .  A
V2273      O2801   1.916       .  S
V2273      O2804   1.904       .  S
V2273      V3882   2.087   1_545  T
V2274      O2806   1.906   1_554  S
V2274      O2807   1.909   1_554  S
V2274      V3881   2.087   1_554  T
C2275      O3344   1.268   1_545  A
C2275      C2309   1.486       .  S
C2276      O3338   1.270       .  A
C2276      C2287   1.480       .  S
C2277      O3339   1.266       .  A
C2277      C2283   1.469       .  S
C2278      O3341   1.268   1_545  A
C2278      C2313   1.475       .  S
C2279      C3672   1.489       .  S
C2279      N2280   1.354       .  A
C2279      N2284   1.353       .  A
N2280      C2281   1.357       .  A
C2281      N2282   1.366       .  A
N2282      C2283   1.367       .  A
C2283      N2284   1.355       .  A
C2285      C3657   1.489       .  S
C2285      N2286   1.356       .  A
C2285      N2290   1.349       .  A
N2286      C2287   1.357       .  A
C2287      N2288   1.373       .  A
N2288      C2289   1.371       .  A
C2289      N2290   1.351       .  A
O2291      V2299   1.906       .  S
O2291      C2301   1.267       .  A
O2292      V2299   1.911       .  S
O2292      C2302   1.263       .  A
O2293      V2299   1.926       .  S
O2293      C2303   1.267       .  A
O2294      V2299   1.915       .  S
O2294      C2304   1.270       .  A
O2295      V2300   1.903       .  S
O2295      C2304   1.261       .  A
O2296      V2300   1.906       .  S
O2296      C2303   1.268       .  A
O2297      V2300   1.910       .  S
O2297      C2302   1.269       .  A
O2298      V2300   1.912       .  S
O2298      C2301   1.264       .  A
V2299      V2300   2.086       .  T
C2301      C2351   1.474       .  S
C2302      C2307   1.478       .  S
C2303      C2327   1.486       .  S
C2304      C2331   1.475       .  S
C2305      C3645   1.475   1_545  S
C2305      N2306   1.351       .  A
C2305      N2310   1.356       .  A
N2306      C2307   1.355       .  A
C2307      N2308   1.370       .  A
N2308      C2309   1.373       .  A
C2309      N2310   1.362       .  A
C2311      C3636   1.468   1_545  S
C2311      N2312   1.353       .  A
C2311      N2316   1.351       .  A
N2312      C2313   1.358       .  A
C2313      N2314   1.370       .  A
N2314      C2315   1.368       .  A
C2315      N2316   1.355       .  A
C2317      C2549   1.465       .  S
C2317      N2318   1.350       .  A
C2317      N2322   1.350       .  A
N2318      C2319   1.356       .  A
C2319      N2320   1.374       .  A
N2320      C2321   1.374       .  A
C2321      N2322   1.356       .  A
C2323      C2537   1.477       .  S
C2323      N2324   1.349       .  A
C2323      N2328   1.353       .  A
N2324      C2325   1.354       .  A
C2325      N2326   1.375       .  A
N2326      C2327   1.374       .  A
C2327      N2328   1.356       .  A
C2329      C3597   1.484   1_545  S
C2329      N2330   1.353       .  A
C2329      N2334   1.353       .  A
N2330      C2331   1.353       .  A
C2331      N2332   1.371       .  A
N2332      C2333   1.371       .  A
C2333      N2334   1.356       .  A
C2335      C3585   1.487   1_545  S
C2335      N2336   1.353       .  A
C2335      N2340   1.354       .  A
N2336      C2337   1.355       .  A
C2337      N2338   1.370       .  A
N2338      C2339   1.369       .  A
C2339      N2340   1.355       .  A
C2341      C2501   1.487       .  S
C2341      N2342   1.355       .  A
C2341      N2346   1.352       .  A
N2342      C2343   1.358       .  A
C2343      N2344   1.369       .  A
N2344      C2345   1.368       .  A
C2345      N2346   1.353       .  A
C2347      C2489   1.480       .  S
C2347      N2348   1.352       .  A
C2347      N2352   1.352       .  A
N2348      C2349   1.355       .  A
C2349      N2350   1.372       .  A
N2350      C2351   1.371       .  A
C2351      N2352   1.353       .  A
N2353      C2357   1.349       .  A
N2353      H2385   1.041       .  S
N2354      C2361   1.351       .  A
N2354      C2362   1.351       .  A
N2355      C2359   1.352       .  A
N2355      H2386   1.039       .  S
N2356      C2363   1.348       .  A
N2356      C2364   1.348       .  A
C2357      C2365   1.388       .  A
C2357      C2373   1.410       .  A
C2358      C2374   1.407       .  A
C2358      C2366   1.386       .  A
C2359      C2367   1.392       .  A
C2359      C2376   1.422       .  A
C2360      C2375   1.413       .  A
C2360      C2368   1.384       .  A
C2361      C2373   1.415       .  A
C2361      C2369   1.385       .  A
C2362      C2376   1.416       .  A
C2362      C2370   1.388       .  A
C2363      C2371   1.387       .  A
C2363      C2374   1.408       .  A
C2364      C2372   1.385       .  A
C2364      C2375   1.406       .  A
C2365      H2377   1.082       .  S
C2366      H2378   1.083       .  S
C2367      H2379   1.080       .  S
C2368      H2380   1.082       .  S
C2369      C2370   1.370       .  A
C2369      H2381   1.082       .  S
C2370      H2382   1.081       .  S
C2371      C2372   1.372       .  A
C2371      H2383   1.082       .  S
C2372      H2384   1.082       .  S
C2373      C2576   1.488       .  S
C2374      C2561   1.483       .  S
C2375      C2552   1.487       .  S
C2376      C2540   1.488       .  S
N2387      C2392   1.346       .  A
N2387      C2391   1.347       .  A
N2387      H2419   1.044       .  S
N2388      C2395   1.348       .  A
N2388      C2396   1.346       .  A
N2389      C2394   1.349       .  A
N2389      C2393   1.348       .  A
N2389      H2420   1.043       .  S
N2390      C2397   1.346       .  A
N2390      C2398   1.347       .  A
C2391      C2399   1.385       .  A
C2391      C2407   1.404       .  A
C2392      C2408   1.404       .  A
C2392      C2400   1.386       .  A
C2393      C2401   1.387       .  A
C2393      C2410   1.408       .  A
C2394      C2409   1.408       .  A
C2394      C2402   1.387       .  A
C2395      C2407   1.405       .  A
C2395      C2403   1.381       .  A
C2396      C2410   1.405       .  A
C2396      C2404   1.384       .  A
C2397      C2405   1.380       .  A
C2397      C2408   1.404       .  A
C2398      C2406   1.385       .  A
C2398      C2409   1.405       .  A
C2399      C2400   1.376       .  A
C2399      H2411   1.081       .  S
C2400      H2412   1.081       .  S
C2401      C2402   1.379       .  A
C2401      H2413   1.082       .  S
C2402      H2414   1.082       .  S
C2403      C2404   1.375       .  A
C2403      H2415   1.078       .  S
C2404      H2416   1.080       .  S
C2405      C2406   1.375       .  A
C2405      H2417   1.075       .  S
C2406      H2418   1.083       .  S
C2407      C2516   1.487       .  S
C2408      C2528   1.484       .  S
C2409      C2492   1.484       .  S
C2410      C2504   1.483       .  S
N2421      C2426   1.347       .  A
N2421      C2425   1.348       .  A
N2421      H2453   1.041       .  S
N2422      C2429   1.348       .  A
N2422      C2430   1.346       .  A
N2423      C2428   1.350       .  A
N2423      C2427   1.350       .  A
N2423      H2454   1.042       .  S
N2424      C2431   1.345       .  A
N2424      C2432   1.348       .  A
C2425      C2433   1.387       .  A
C2425      C2441   1.409       .  A
C2426      C2442   1.408       .  A
C2426      C2434   1.387       .  A
C2427      C2435   1.388       .  A
C2427      C2444   1.414       .  A
C2428      C2443   1.409       .  A
C2428      C2436   1.385       .  A
C2429      C2441   1.407       .  A
C2429      C2437   1.386       .  A
C2430      C2444   1.407       .  A
C2430      C2438   1.386       .  A
C2431      C2439   1.387       .  A
C2431      C2442   1.406       .  A
C2432      C2440   1.386       .  A
C2432      C2443   1.406       .  A
C2433      C2434   1.380       .  A
C2433      H2445   1.082       .  S
C2434      H2446   1.083       .  S
C2435      C2436   1.379       .  A
C2435      H2447   1.082       .  S
C2436      H2448   1.082       .  S
C2437      C2438   1.374       .  A
C2437      H2449   1.082       .  S
C2438      H2450   1.082       .  S
C2439      C2440   1.374       .  A
C2439      H2451   1.082       .  S
C2440      H2452   1.082       .  S
C2441      C2657   1.486       .  S
C2442      C2645   1.476       .  S
C2443      C2633   1.490       .  S
C2444      C2672   1.491       .  S
N2455      C2459   1.350       .  A
N2455      H2487   1.043       .  S
N2456      C2463   1.349       .  A
N2456      C2464   1.349       .  A
N2457      C2461   1.348       .  A
N2457      H2488   1.041       .  S
N2458      C2465   1.345       .  A
N2458      C2466   1.345       .  A
C2459      C2467   1.387       .  A
C2459      C2475   1.411       .  A
C2460      C2476   1.411       .  A
C2460      C2468   1.387       .  A
C2461      C2469   1.386       .  A
C2461      C2478   1.408       .  A
C2462      C2477   1.412       .  A
C2462      C2470   1.388       .  A
C2463      C2475   1.409       .  A
C2463      C2471   1.386       .  A
C2464      C2478   1.411       .  A
C2464      C2472   1.387       .  A
C2465      C2473   1.387       .  A
C2465      C2476   1.406       .  A
C2466      C2474   1.387       .  A
C2466      C2477   1.405       .  A
C2467      H2479   1.082       .  S
C2468      H2480   1.082       .  S
C2469      H2481   1.082       .  S
C2470      H2482   1.082       .  S
C2471      C2472   1.376       .  A
C2471      H2483   1.082       .  S
C2472      H2484   1.082       .  S
C2473      C2474   1.375       .  A
C2473      H2485   1.082       .  S
C2474      H2486   1.082       .  S
C2475      C2609   1.490       .  S
C2476      C2624   1.485       .  S
C2477      C2588   1.486       .  S
C2478      C2597   1.489       .  S
C2489      C2490   1.407       .  A
C2489      C2494   1.415       .  A
C2490      C2491   1.394       .  A
C2490      H2495   1.085       .  S
C2491      C2492   1.408       .  A
C2491      C2498   1.444       .  S
C2492      C2493   1.403       .  A
C2493      C2494   1.397       .  A
C2493      H2496   1.085       .  S
C2494      C2497   1.443       .  S
C2497      N2499   1.157       .  T
C2498      N2500   1.157       .  T
C2501      C2502   1.409       .  A
C2501      C2506   1.417       .  A
C2502      C2503   1.396       .  A
C2502      H2507   1.085       .  S
C2503      C2504   1.407       .  A
C2503      C2510   1.444       .  S
C2504      C2505   1.401       .  A
C2505      C2506   1.398       .  A
C2505      H2508   1.085       .  S
C2506      C2509   1.443       .  S
C2509      N2511   1.157       .  T
C2510      N2512   1.157       .  T
C2513      C3407   1.487       .  S
C2513      C2514   1.408       .  A
C2513      C2518   1.418       .  A
C2514      C2515   1.398       .  A
C2514      H2519   1.085       .  S
C2515      C2516   1.409       .  A
C2515      C2522   1.442       .  S
C2516      C2517   1.400       .  A
C2517      C2518   1.397       .  A
C2517      H2520   1.085       .  S
C2518      C3593   1.443       .  S
C2521      C3590   1.443       .  S
C2521      N2523   1.157       .  T
C2522      N2524   1.156       .  T
C2525      C3401   1.484       .  S
C2525      C2526   1.407       .  A
C2525      C2530   1.417       .  A
C2526      C2527   1.395       .  A
C2526      H3603   1.084       .  S
C2527      C2528   1.408       .  A
C2527      C2534   1.443       .  S
C2528      C2529   1.401       .  A
C2529      C2530   1.397       .  A
C2529      H2532   1.085       .  S
C2530      C2533   1.442       .  S
H2531      C3598   1.084   1_545  S
C2533      N2535   1.156       .  T
C2534      N2536   1.156       .  T
C2537      C2538   1.406       .  A
C2537      C2542   1.408       .  A
C2538      C2539   1.403       .  A
C2538      H2543   1.084       .  S
C2539      C2540   1.413       .  A
C2539      C2546   1.444       .  S
C2540      C2541   1.399       .  A
C2541      C2542   1.389       .  A
C2541      H2544   1.086       .  S
C2542      C2545   1.435       .  S
C2545      N2547   1.154       .  T
C2546      N3084   1.157   1_554  T
N2548      C3082   1.157       .  T
C2549      C2550   1.400       .  A
C2549      C2554   1.407       .  A
C2550      C2551   1.398       .  A
C2550      H2555   1.081       .  S
C2551      C2552   1.413       .  A
C2551      C2558   1.444       .  S
C2552      C2553   1.403       .  A
C2553      C2554   1.395       .  A
C2553      H2556   1.085       .  S
C2554      C2557   1.440       .  S
C2557      N2559   1.156       .  T
C2558      N2560   1.157       .  T
C2561      C2562   1.402       .  A
C2561      C2566   1.408       .  A
C2562      C2563   1.397       .  A
C2562      H2567   1.085       .  S
C2563      C2564   1.410       .  A
C2563      C3642   1.443       .  S
C2564      C3383   1.468       .  S
C2564      C2565   1.402       .  A
C2565      C2566   1.398       .  A
C2565      H2568   1.081       .  S
C2566      C2569   1.444       .  S
C2569      N2571   1.157       .  T
C2570      C3635   1.443   1_545  S
C2570      N2572   1.157       .  T
C2573      C3377   1.475       .  S
C2573      C2574   1.405       .  A
C2573      C2578   1.411       .  A
C2574      C2575   1.403       .  A
C2574      H2579   1.080       .  S
C2575      C2576   1.408       .  A
C2575      C2582   1.444       .  S
C2576      C2577   1.401       .  A
C2577      C2578   1.396       .  A
C2577      H2580   1.085       .  S
C2578      C2581   1.442       .  S
C2581      N4191   1.156       .  T
C2582      N2584   1.157       .  T
N2583      C4189   1.156       .  T
C2585      C3357   1.489   1_545  S
C2585      C2586   1.408       .  A
C2585      C2590   1.421       .  A
C2586      C2587   1.397       .  A
C2586      H2591   1.084       .  S
C2587      C2588   1.411       .  A
C2587      C2594   1.445       .  S
C2588      C2589   1.398       .  A
C2589      C2590   1.394       .  A
C2589      H2592   1.086       .  S
C2590      C2593   1.443   1_545  S
C2593      N3667   1.157       .  T
C2594      N3132   1.157       .  T
N2595      C3665   1.157       .  T
N2596      C3130   1.157       .  T
C2597      C2598   1.400       .  A
C2597      C2602   1.412       .  A
C2598      C2599   1.397       .  A
C2598      H2603   1.085       .  S
C2599      C2600   1.418       .  A
C2599      C2606   1.443       .  S
C2600      C3351   1.489   1_545  S
C2600      C2601   1.408       .  A
C2601      C2602   1.399       .  A
C2601      H3676   1.084   1_545  S
C2602      C2605   1.446       .  S
H2604      C3673   1.084       .  S
C2605      N2607   1.157       .  T
C2606      N2608   1.157       .  T
C2609      C2610   1.402       .  A
C2609      C2614   1.411       .  A
C2610      C2611   1.397       .  A
C2610      H2615   1.085       .  S
C2611      C2612   1.417       .  A
C2611      C2618   1.442       .  S
C2612      C2613   1.408       .  A
C2613      C2614   1.398       .  A
C2613      H2616   1.085       .  S
C2614      C2617   1.444       .  S
C2617      N2619   1.157       .  T
C2618      N2620   1.156       .  T
C2621      C2622   1.409       .  A
C2621      C2626   1.419       .  A
C2622      C2623   1.398       .  A
C2622      H2627   1.084       .  S
C2623      C2624   1.408       .  A
C2623      C2630   1.445       .  S
C2624      C2625   1.400       .  A
C2625      C2626   1.394       .  A
C2625      H2628   1.086       .  S
C2626      C2629   1.444       .  S
C2629      N2631   1.157       .  T
C2630      N2632   1.157       .  T
C2633      C2634   1.404       .  A
C2633      C2638   1.414       .  A
C2634      C2635   1.397       .  A
C2634      H2639   1.085       .  S
C2635      C2636   1.410       .  A
C2635      C2642   1.443       .  S
C2636      C3291   1.467   1_545  S
C2636      C2637   1.399       .  A
C2637      C2638   1.397       .  A
C2637      H3712   1.085   1_545  S
C2638      C2641   1.443       .  S
H2640      C3709   1.085       .  S
C2641      N2643   1.157       .  T
C2642      N2644   1.156       .  T
C2645      C2646   1.397       .  A
C2645      C2650   1.410       .  A
C2646      C2647   1.390       .  A
C2646      H2651   1.086       .  S
C2647      C2648   1.409       .  A
C2647      C2654   1.438       .  S
C2648      C3285   1.463   1_545  S
C2648      C2649   1.402       .  A
C2649      C2650   1.400       .  A
C2649      H2652   1.084   1_545  S
C2650      C2653   1.443       .  S
C2653      N2655   1.157       .  T
C2654      N2656   1.155       .  T
C2657      C2658   1.405       .  A
C2657      C2662   1.413       .  A
C2658      C2659   1.396       .  A
C2658      H2663   1.085       .  S
C2659      C2660   1.409       .  A
C2659      C2666   1.443       .  S
C2660      C2661   1.402       .  A
C2661      C2662   1.397       .  A
C2661      H2664   1.085       .  S
C2662      C2665   1.444       .  S
C2665      N2667   1.157       .  T
C2666      N2668   1.157       .  T
C2669      C2670   1.402       .  A
C2669      C2674   1.412       .  A
C2670      C2671   1.399       .  A
C2670      H2675   1.085       .  S
C2671      C2672   1.416       .  A
C2671      C2678   1.445       .  S
C2672      C2673   1.403       .  A
C2673      C2674   1.394       .  A
C2673      H2676   1.085       .  S
C2674      C2677   1.442       .  S
C2677      N2679   1.157       .  T
C2678      N2680   1.157       .  T
O2681      V2689   1.910       .  S
O2681      C2691   1.263       .  A
O2682      V2689   1.915       .  S
O2682      C2692   1.270       .  A
O2683      V2689   1.910       .  S
O2683      C2693   1.268       .  A
O2684      V2689   1.912       .  S
O2684      C2694   1.263       .  A
O2685      V2690   1.904       .  S
O2685      C2694   1.267       .  A
O2686      V2690   1.903       .  S
O2686      C2693   1.262       .  A
O2687      V2690   1.915       .  S
O2687      C2692   1.265       .  A
O2688      V2690   1.909       .  S
O2688      C2691   1.268       .  A
V2689      V2690   2.087       .  T
C2691      C2779   1.475       .  S
C2692      C2759   1.485       .  S
C2693      C2727   1.473       .  S
C2694      C2825   1.474       .  S
O2695      V2703   1.909       .  S
O2695      C2705   1.264       .  A
O2696      V2703   1.908       .  S
O2696      C2706   1.269       .  A
O2697      V2703   1.899       .  S
O2697      C2707   1.265       .  A
O2698      V2703   1.901       .  S
O2698      C2708   1.261       .  A
O2699      V2704   1.909       .  S
O2699      C2708   1.268       .  A
O2700      V2704   1.910       .  S
O2700      C2707   1.264       .  A
O2701      V2704   1.917       .  S
O2701      C2706   1.265       .  A
O2702      V2704   1.912       .  S
O2702      C2705   1.268       .  A
V2703      V2704   2.087       .  T
C2705      C2753   1.478       .  S
C2706      C2783   1.482       .  S
C2707      C2817   1.470       .  S
C2708      C2731   1.471       .  S
O2709      V2717   1.908       .  S
O2709      C2719   1.268       .  A
O2710      C2720   1.265       .  A
O2711      V2717   1.904       .  S
O2711      C2721   1.261       .  A
O2712      C2722   1.265       .  A
O2713      C2722   1.263       .  A
O2714      V2718   1.908       .  S
O2714      C2721   1.269       .  A
O2715      C2720   1.266       .  A
O2716      V2718   1.902       .  S
O2716      C2719   1.261       .  A
V2717      V2718   2.088       .  T
C2719      C2733   1.470       .  S
C2720      C2879   1.475       .  S
C2721      C2885   1.474       .  S
C2722      C2725   1.464       .  S
C2723      C3205   1.473       .  S
C2723      N2724   1.350       .  A
C2723      N2728   1.356       .  A
N2724      C2725   1.353       .  A
C2725      N2726   1.365       .  A
N2726      C2727   1.367       .  A
C2727      N2728   1.359       .  A
C2729      C3196   1.466       .  S
C2729      N2730   1.352       .  A
C2729      N2734   1.350       .  A
N2730      C2731   1.355       .  A
C2731      N2732   1.370       .  A
N2732      C2733   1.369       .  A
C2733      N2734   1.353       .  A
O2735      C3817   1.268       .  A
O2736      V2743   1.905       .  S
O2736      C2746   1.262       .  A
O2737      C2747   1.264       .  A
O2738      V2743   1.909       .  S
O2738      C3820   1.268       .  A
O2739      V2744   1.912       .  S
O2739      C2748   1.264       .  A
O2740      C3819   1.269   1_545  A
O2741      V2744   1.902       .  S
O2741      C3818   1.266   1_545  A
O2742      C2745   1.263       .  A
V2743      V3816   2.087       .  T
V2744      V3815   2.087   1_545  T
C2745      O3807   1.268   1_545  A
C2745      C2873   1.475       .  S
C2746      O3813   1.266       .  A
C2746      C2751   1.466       .  S
C2747      O3812   1.269       .  A
C2747      C2757   1.478       .  S
C2748      O3810   1.268   1_545  A
C2748      C2869   1.478       .  S
C2749      C4256   1.462       .  S
C2749      N2750   1.347       .  A
C2749      N2754   1.355       .  A
N2750      C2751   1.350       .  A
C2751      N2752   1.368       .  A
N2752      C2753   1.371       .  A
C2753      N2754   1.360       .  A
C2755      C4244   1.468       .  S
C2755      N2756   1.348       .  A
C2755      N2760   1.354       .  A
N2756      C2757   1.352       .  A
C2757      N2758   1.374       .  A
N2758      C2759   1.375       .  A
C2759      N2760   1.359       .  A
O2761      V2769   1.916       .  S
O2761      C2771   1.270       .  A
O2762      C2772   1.266       .  A
O2763      C2773   1.262       .  A
O2764      V2769   1.903       .  S
O2764      C2774   1.267       .  A
O2765      C2774   1.264       .  A
O2766      V2770   1.910       .  S
O2766      C2773   1.269       .  A
O2767      V2770   1.905       .  S
O2767      C2772   1.267       .  A
O2768      C2771   1.262       .  A
C2771      C2785   1.480       .  S
C2772      C2857   1.480       .  S
C2773      C2861   1.474       .  S
C2774      C2777   1.475       .  S
C2775      C3157   1.488       .  S
C2775      N2776   1.351       .  A
C2775      N2780   1.354       .  A
N2776      C2777   1.353       .  A
C2777      N2778   1.370       .  A
N2778      C2779   1.371       .  A
C2779      N2780   1.357       .  A
C2781      C3148   1.487       .  S
C2781      N2782   1.352       .  A
C2781      N2786   1.354       .  A
N2782      C2783   1.355       .  A
C2783      N2784   1.373       .  A
N2784      C2785   1.374       .  A
C2785      N2786   1.355       .  A
O2787      V2795   1.909       .  S
O2787      C2797   1.263       .  A
O2788      V2795   1.906       .  S
O2788      C2798   1.267       .  A
O2789      V2795   1.909       .  S
O2789      C2799   1.268       .  A
O2790      V2795   1.910       .  S
O2790      C2800   1.263       .  A
O2791      V2796   1.910       .  S
O2791      C2800   1.269       .  A
O2792      V2796   1.915       .  S
O2792      C2799   1.265       .  A
O2793      V2796   1.906       .  S
O2793      C2798   1.263       .  A
O2794      V2796   1.905       .  S
O2794      C2797   1.267       .  A
V2795      V2796   2.087       .  T
C2797      C2881   1.471       .  S
C2798      C2851   1.472       .  S
C2799      C2855   1.480       .  S
C2800      C2875   1.476       .  S
O2801      C2811   1.266       .  A
O2802      V2809   1.913       .  S
O2802      C3884   1.270   1_545  A
O2803      V2809   1.901       .  S
O2803      C3885   1.266   1_545  A
O2804      C2814   1.262       .  A
O2805      V2810   1.909       .  S
O2805      C3886   1.268       .  A
O2806      C2813   1.263       .  A
O2807      C2812   1.263       .  A
O2808      V2810   1.911       .  S
O2808      C3883   1.268       .  A
V2809      V3346   2.087   1_546  T
V2810      V3345   2.087       .  T
C2811      O3880   1.268   1_545  A
C2811      C2845   1.485       .  S
C2812      O3874   1.270       .  A
C2812      C2823   1.479       .  S
C2813      O3875   1.266       .  A
C2813      C2819   1.467       .  S
C2814      O3877   1.268   1_545  A
C2814      C2849   1.474       .  S
C2815      C4208   1.489       .  S
C2815      N2816   1.355       .  A
C2815      N2820   1.352       .  A
N2816      C2817   1.357       .  A
C2817      N2818   1.366       .  A
N2818      C2819   1.366       .  A
C2819      N2820   1.355       .  A
C2821      C4193   1.488       .  S
C2821      N2822   1.355       .  A
C2821      N2826   1.349       .  A
N2822      C2823   1.357       .  A
C2823      N2824   1.373       .  A
N2824      C2825   1.370       .  A
C2825      N2826   1.351       .  A
O2827      V2835   1.906       .  S
O2827      C2837   1.267       .  A
O2828      V2835   1.910       .  S
O2828      C2838   1.263       .  A
O2829      V2835   1.924       .  S
O2829      C2839   1.267       .  A
O2830      V2835   1.914       .  S
O2830      C2840   1.270       .  A
O2831      V2836   1.904       .  S
O2831      C2840   1.261       .  A
O2832      V2836   1.904       .  S
O2832      C2839   1.267       .  A
O2833      V2836   1.908       .  S
O2833      C2838   1.268       .  A
O2834      V2836   1.911       .  S
O2834      C2837   1.264       .  A
V2835      V2836   2.086       .  T
C2837      C2887   1.473       .  S
C2838      C2843   1.475       .  S
C2839      C2863   1.483       .  S
C2840      C2867   1.475       .  S
C2841      C4181   1.473   1_545  S
C2841      N2842   1.350       .  A
C2841      N2846   1.356       .  A
N2842      C2843   1.354       .  A
C2843      N2844   1.370       .  A
N2844      C2845   1.372       .  A
C2845      N2846   1.362       .  A
C2847      C4172   1.466   1_545  S
C2847      N2848   1.353       .  A
C2847      N2852   1.351       .  A
N2848      C2849   1.358       .  A
C2849      N2850   1.370       .  A
N2850      C2851   1.368       .  A
C2851      N2852   1.354       .  A
C2853      C3085   1.466       .  S
C2853      N2854   1.350       .  A
C2853      N2858   1.350       .  A
N2854      C2855   1.356       .  A
C2855      N2856   1.374       .  A
N2856      C2857   1.374       .  A
C2857      N2858   1.356       .  A
C2859      C3073   1.478       .  S
C2859      N2860   1.350       .  A
C2859      N2864   1.352       .  A
N2860      C2861   1.354       .  A
C2861      N2862   1.375       .  A
N2862      C2863   1.373       .  A
C2863      N2864   1.355       .  A
C2865      C4133   1.485   1_545  S
C2865      N2866   1.353       .  A
C2865      N2870   1.353       .  A
N2866      C2867   1.353       .  A
C2867      N2868   1.371       .  A
N2868      C2869   1.371       .  A
C2869      N2870   1.356       .  A
C2871      C4121   1.488   1_545  S
C2871      N2872   1.351       .  A
C2871      N2876   1.354       .  A
N2872      C2873   1.354       .  A
C2873      N2874   1.371       .  A
N2874      C2875   1.371       .  A
C2875      N2876   1.356       .  A
C2877      C3037   1.486       .  S
C2877      N2878   1.355       .  A
C2877      N2882   1.353       .  A
N2878      C2879   1.359       .  A
C2879      N2880   1.369       .  A
N2880      C2881   1.368       .  A
C2881      N2882   1.353       .  A
C2883      C3025   1.481       .  S
C2883      N2884   1.353       .  A
C2883      N2888   1.352       .  A
N2884      C2885   1.356       .  A
C2885      N2886   1.371       .  A
N2886      C2887   1.370       .  A
C2887      N2888   1.353       .  A
N2889      C2893   1.349       .  A
N2889      H2921   1.039       .  S
N2890      C2897   1.352       .  A
N2890      C2898   1.352       .  A
N2891      C2895   1.352       .  A
N2891      H2922   1.037       .  S
N2892      C2899   1.348       .  A
N2892      C2900   1.348       .  A
C2893      C2901   1.388       .  A
C2893      C2909   1.411       .  A
C2894      C2910   1.408       .  A
C2894      C2902   1.386       .  A
C2895      C2903   1.392       .  A
C2895      C2912   1.423       .  A
C2896      C2911   1.414       .  A
C2896      C2904   1.384       .  A
C2897      C2909   1.415       .  A
C2897      C2905   1.385       .  A
C2898      C2912   1.417       .  A
C2898      C2906   1.388       .  A
C2899      C2907   1.387       .  A
C2899      C2910   1.408       .  A
C2900      C2908   1.385       .  A
C2900      C2911   1.406       .  A
C2901      H2913   1.083       .  S
C2902      H2914   1.083       .  S
C2903      H2915   1.079       .  S
C2904      H2916   1.082       .  S
C2905      C2906   1.370       .  A
C2905      H2917   1.082       .  S
C2906      H2918   1.081       .  S
C2907      C2908   1.371       .  A
C2907      H2919   1.082       .  S
C2908      H2920   1.082       .  S
C2909      C3112   1.488       .  S
C2910      C3097   1.481       .  S
C2911      C3088   1.488       .  S
C2912      C3076   1.489       .  S
N2923      C2928   1.346       .  A
N2923      C2927   1.347       .  A
N2923      H2955   1.044       .  S
N2924      C2931   1.347       .  A
N2924      C2932   1.346       .  A
N2925      C2930   1.349       .  A
N2925      C2929   1.348       .  A
N2925      H2956   1.043       .  S
N2926      C2933   1.346       .  A
N2926      C2934   1.347       .  A
C2927      C2935   1.384       .  A
C2927      C2943   1.404       .  A
C2928      C2944   1.404       .  A
C2928      C2936   1.386       .  A
C2929      C2937   1.387       .  A
C2929      C2946   1.408       .  A
C2930      C2945   1.408       .  A
C2930      C2938   1.387       .  A
C2931      C2943   1.405       .  A
C2931      C2939   1.382       .  A
C2932      C2946   1.405       .  A
C2932      C2940   1.384       .  A
C2933      C2941   1.381       .  A
C2933      C2944   1.404       .  A
C2934      C2942   1.385       .  A
C2934      C2945   1.404       .  A
C2935      C2936   1.377       .  A
C2935      H2947   1.080       .  S
C2936      H2948   1.081       .  S
C2937      C2938   1.379       .  A
C2937      H2949   1.082       .  S
C2938      H2950   1.082       .  S
C2939      C2940   1.376       .  A
C2939      H2951   1.078       .  S
C2940      H2952   1.080       .  S
C2941      C2942   1.375       .  A
C2941      H2953   1.076       .  S
C2942      H2954   1.083       .  S
C2943      C3052   1.487       .  S
C2944      C3064   1.485       .  S
C2945      C3028   1.484       .  S
C2946      C3040   1.483       .  S
N2957      C2962   1.347       .  A
N2957      C2961   1.349       .  A
N2957      H2989   1.041       .  S
N2958      C2965   1.348       .  A
N2958      C2966   1.346       .  A
N2959      C2964   1.350       .  A
N2959      C2963   1.350       .  A
N2959      H2990   1.042       .  S
N2960      C2967   1.345       .  A
N2960      C2968   1.348       .  A
C2961      C2969   1.387       .  A
C2961      C2977   1.409       .  A
C2962      C2978   1.408       .  A
C2962      C2970   1.387       .  A
C2963      C2971   1.389       .  A
C2963      C2980   1.415       .  A
C2964      C2979   1.409       .  A
C2964      C2972   1.384       .  A
C2965      C2977   1.408       .  A
C2965      C2973   1.386       .  A
C2966      C2980   1.408       .  A
C2966      C2974   1.387       .  A
C2967      C2975   1.387       .  A
C2967      C2978   1.405       .  A
C2968      C2976   1.386       .  A
C2968      C2979   1.406       .  A
C2969      C2970   1.380       .  A
C2969      H2981   1.082       .  S
C2970      H2982   1.083       .  S
C2971      C2972   1.379       .  A
C2971      H2983   1.082       .  S
C2972      H2984   1.082       .  S
C2973      C2974   1.375       .  A
C2973      H2985   1.082       .  S
C2974      H2986   1.082       .  S
C2975      C2976   1.373       .  A
C2975      H2987   1.082       .  S
C2976      H2988   1.082       .  S
C2977      C3193   1.486       .  S
C2978      C3181   1.475       .  S
C2979      C3169   1.491       .  S
C2980      C3208   1.490       .  S
N2991      C2995   1.350       .  A
N2991      H3023   1.045       .  S
N2992      C2999   1.348       .  A
N2992      C3000   1.349       .  A
N2993      C2997   1.348       .  A
N2993      H3024   1.044       .  S
N2994      C3001   1.346       .  A
N2994      C3002   1.346       .  A
C2995      C3003   1.387       .  A
C2995      C3011   1.411       .  A
C2996      C3012   1.412       .  A
C2996      C3004   1.387       .  A
C2997      C3005   1.386       .  A
C2997      C3014   1.408       .  A
C2998      C3013   1.411       .  A
C2998      C3006   1.388       .  A
C2999      C3011   1.409       .  A
C2999      C3007   1.386       .  A
C3000      C3014   1.411       .  A
C3000      C3008   1.387       .  A
C3001      C3009   1.387       .  A
C3001      C3012   1.406       .  A
C3002      C3010   1.387       .  A
C3002      C3013   1.406       .  A
C3003      H3015   1.082       .  S
C3004      H3016   1.082       .  S
C3005      H3017   1.082       .  S
C3006      H3018   1.082       .  S
C3007      C3008   1.375       .  A
C3007      H3019   1.082       .  S
C3008      H3020   1.082       .  S
C3009      C3010   1.375       .  A
C3009      H3021   1.082       .  S
C3010      H3022   1.082       .  S
C3011      C3145   1.489       .  S
C3012      C3160   1.486       .  S
C3013      C3124   1.485       .  S
C3014      C3133   1.489       .  S
C3025      C3026   1.407       .  A
C3025      C3030   1.415       .  A
C3026      C3027   1.396       .  A
C3026      H3031   1.085       .  S
C3027      C3028   1.408       .  A
C3027      C3034   1.444       .  S
C3028      C3029   1.402       .  A
C3029      C3030   1.397       .  A
C3029      H3032   1.085       .  S
C3030      C3033   1.444       .  S
C3033      N3035   1.157       .  T
C3034      N3036   1.157       .  T
C3037      C3038   1.409       .  A
C3037      C3042   1.417       .  A
C3038      C3039   1.396       .  A
C3038      H3043   1.085       .  S
C3039      C3040   1.407       .  A
C3039      C3046   1.444       .  S
C3040      C3041   1.401       .  A
C3041      C3042   1.398       .  A
C3041      H3044   1.085       .  S
C3042      C3045   1.442       .  S
C3045      N3047   1.157       .  T
C3046      N3048   1.157       .  T
C3049      C3943   1.488       .  S
C3049      C3050   1.407       .  A
C3049      C3054   1.419       .  A
C3050      C3051   1.397       .  A
C3050      H3055   1.085       .  S
C3051      C3052   1.409       .  A
C3051      C3058   1.441       .  S
C3052      C3053   1.400       .  A
C3053      C3054   1.397       .  A
C3053      H3056   1.085       .  S
C3054      C4129   1.443       .  S
C3057      C4126   1.443       .  S
C3057      N3059   1.157       .  T
C3058      N3060   1.156       .  T
C3061      C3937   1.485       .  S
C3061      C3062   1.407       .  A
C3061      C3066   1.418       .  A
C3062      C3063   1.395       .  A
C3062      H4139   1.084       .  S
C3063      C3064   1.408       .  A
C3063      C3070   1.442       .  S
C3064      C3065   1.401       .  A
C3065      C3066   1.397       .  A
C3065      H3068   1.085       .  S
C3066      C3069   1.443       .  S
H3067      C4134   1.084   1_545  S
C3069      N3071   1.157       .  T
C3070      N3072   1.156       .  T
C3073      C3074   1.406       .  A
C3073      C3078   1.409       .  A
C3074      C3075   1.402       .  A
C3074      H3079   1.084       .  S
C3075      C3076   1.414       .  A
C3075      C3082   1.444       .  S
C3076      C3077   1.399       .  A
C3077      C3078   1.389       .  A
C3077      H3080   1.086       .  S
C3078      C3081   1.436       .  S
C3081      N3083   1.154       .  T
C3085      C3086   1.400       .  A
C3085      C3090   1.407       .  A
C3086      C3087   1.399       .  A
C3086      H3091   1.082       .  S
C3087      C3088   1.413       .  A
C3087      C3094   1.444       .  S
C3088      C3089   1.402       .  A
C3089      C3090   1.395       .  A
C3089      H3092   1.085       .  S
C3090      C3093   1.439       .  S
C3093      N3095   1.155       .  T
C3094      N3096   1.157       .  T
C3097      C3098   1.400       .  A
C3097      C3102   1.409       .  A
C3098      C3099   1.396       .  A
C3098      H3103   1.085       .  S
C3099      C3100   1.410       .  A
C3099      C4178   1.443       .  S
C3100      C3919   1.466       .  S
C3100      C3101   1.402       .  A
C3101      C3102   1.398       .  A
C3101      H3104   1.082       .  S
C3102      C3105   1.444       .  S
C3105      N3107   1.157       .  T
C3106      C4171   1.443   1_545  S
C3106      N3108   1.156       .  T
C3109      C3913   1.473       .  S
C3109      C3110   1.404       .  A
C3109      C3114   1.410       .  A
C3110      C3111   1.403       .  A
C3110      H3115   1.080       .  S
C3111      C3112   1.409       .  A
C3111      C3118   1.444       .  S
C3112      C3113   1.401       .  A
C3113      C3114   1.396       .  A
C3113      H3116   1.085       .  S
C3114      C3117   1.442       .  S
C3117      N3655   1.156       .  T
C3118      N3120   1.157       .  T
N3119      C3653   1.156       .  T
C3121      C3893   1.488   1_545  S
C3121      C3122   1.408       .  A
C3121      C3126   1.421       .  A
C3122      C3123   1.397       .  A
C3122      H3127   1.084       .  S
C3123      C3124   1.410       .  A
C3123      C3130   1.445       .  S
C3124      C3125   1.399       .  A
C3125      C3126   1.395       .  A
C3125      H3128   1.086       .  S
C3126      C3129   1.443   1_545  S
C3129      N4203   1.157       .  T
N3131      C4201   1.157       .  T
C3133      C3134   1.400       .  A
C3133      C3138   1.411       .  A
C3134      C3135   1.397       .  A
C3134      H3139   1.085       .  S
C3135      C3136   1.419       .  A
C3135      C3142   1.443       .  S
C3136      C3887   1.489   1_545  S
C3136      C3137   1.408       .  A
C3137      C3138   1.398       .  A
C3137      H4212   1.084   1_545  S
C3138      C3141   1.446       .  S
H3140      C4209   1.084       .  S
C3141      N3143   1.157       .  T
C3142      N3144   1.157       .  T
C3145      C3146   1.402       .  A
C3145      C3150   1.411       .  A
C3146      C3147   1.397       .  A
C3146      H3151   1.085       .  S
C3147      C3148   1.417       .  A
C3147      C3154   1.441       .  S
C3148      C3149   1.407       .  A
C3149      C3150   1.398       .  A
C3149      H3152   1.085       .  S
C3150      C3153   1.444       .  S
C3153      N3155   1.157   1_556  T
C3154      N3156   1.156       .  T
C3157      C3158   1.409       .  A
C3157      C3162   1.419       .  A
C3158      C3159   1.399       .  A
C3158      H3163   1.084       .  S
C3159      C3160   1.409       .  A
C3159      C3166   1.445       .  S
C3160      C3161   1.400       .  A
C3161      C3162   1.395       .  A
C3161      H3164   1.086       .  S
C3162      C3165   1.445       .  S
C3165      N3167   1.157       .  T
C3166      N3168   1.157       .  T
C3169      C3170   1.404       .  A
C3169      C3174   1.415       .  A
C3170      C3171   1.398       .  A
C3170      H3175   1.085       .  S
C3171      C3172   1.410       .  A
C3171      C3178   1.443       .  S
C3172      C3827   1.468   1_545  S
C3172      C3173   1.400       .  A
C3173      C3174   1.398       .  A
C3173      H4248   1.085   1_545  S
C3174      C3177   1.443       .  S
H3176      C4245   1.085       .  S
C3177      N3179   1.157       .  T
C3178      N3180   1.156       .  T
C3181      C3182   1.396       .  A
C3181      C3186   1.410       .  A
C3182      C3183   1.389       .  A
C3182      H3187   1.086       .  S
C3183      C3184   1.408       .  A
C3183      C3190   1.438       .  S
C3184      C3821   1.462   1_545  S
C3184      C3185   1.403       .  A
C3185      C3186   1.400       .  A
C3185      H3188   1.084   1_545  S
C3186      C3189   1.443       .  S
C3189      N3191   1.157       .  T
C3190      N3192   1.155       .  T
C3193      C3194   1.404       .  A
C3193      C3198   1.413       .  A
C3194      C3195   1.395       .  A
C3194      H3199   1.085       .  S
C3195      C3196   1.408       .  A
C3195      C3202   1.443       .  S
C3196      C3197   1.402       .  A
C3197      C3198   1.398       .  A
C3197      H3200   1.085       .  S
C3198      C3201   1.444       .  S
C3201      N3203   1.157       .  T
C3202      N3204   1.157       .  T
C3205      C3206   1.403       .  A
C3205      C3210   1.412       .  A
C3206      C3207   1.400       .  A
C3206      H3211   1.085       .  S
C3207      C3208   1.416       .  A
C3207      C3214   1.445       .  S
C3208      C3209   1.402       .  A
C3209      C3210   1.392       .  A
C3209      H3212   1.085       .  S
C3210      C3213   1.442       .  S
C3213      N3215   1.157       .  T
C3214      N3216   1.157       .  T
O3217      V3225   1.909       .  S
O3217      C3227   1.263       .  A
O3218      V3225   1.914       .  S
O3218      C3228   1.269       .  A
O3219      V3225   1.910       .  S
O3219      C3229   1.268       .  A
O3220      V3225   1.912       .  S
O3220      C3230   1.264       .  A
O3221      V3226   1.906       .  S
O3221      C3230   1.268       .  A
O3222      V3226   1.905       .  S
O3222      C3229   1.263       .  A
O3223      V3226   1.912       .  S
O3223      C3228   1.264       .  A
O3224      V3226   1.906       .  S
O3224      C3227   1.267       .  A
V3225      V3226   2.087       .  T
C3227      C3315   1.473       .  S
C3228      C3295   1.482       .  S
C3229      C3263   1.475       .  S
C3230      C3361   1.475       .  S
O3231      V3239   1.907       .  S
O3231      C3241   1.263       .  A
O3232      V3239   1.907       .  S
O3232      C3242   1.268       .  A
O3233      V3239   1.900       .  S
O3233      C3243   1.265       .  A
O3234      V3239   1.902       .  S
O3234      C3244   1.262       .  A
O3235      V3240   1.909       .  S
O3235      C3244   1.268       .  A
O3236      V3240   1.909       .  S
O3236      C3243   1.264       .  A
O3237      V3240   1.917       .  S
O3237      C3242   1.265       .  A
O3238      V3240   1.913       .  S
O3238      C3241   1.269       .  A
V3239      V3240   2.087       .  T
C3241      C3289   1.478       .  S
C3242      C3319   1.481       .  S
C3243      C3353   1.470       .  S
C3244      C3267   1.472       .  S
O3245      V3253   1.909       .  S
O3245      C3255   1.269       .  A
O3246      C3256   1.265       .  A
O3247      V3253   1.904       .  S
O3247      C3257   1.261       .  A
O3248      C3258   1.265       .  A
O3249      C3258   1.263       .  A
O3250      V3254   1.909       .  S
O3250      C3257   1.269       .  A
O3251      C3256   1.266       .  A
O3252      V3254   1.902       .  S
O3252      C3255   1.261       .  A
V3253      V3254   2.087       .  T
C3255      C3269   1.471       .  S
C3256      C3415   1.475       .  S
C3257      C3421   1.474       .  S
C3258      C3261   1.465       .  S
C3259      C3741   1.473       .  S
C3259      N3260   1.349       .  A
C3259      N3264   1.356       .  A
N3260      C3261   1.352       .  A
C3261      N3262   1.366       .  A
N3262      C3263   1.368       .  A
C3263      N3264   1.360       .  A
C3265      C3732   1.467       .  S
C3265      N3266   1.353       .  A
C3265      N3270   1.351       .  A
N3266      C3267   1.356       .  A
C3267      N3268   1.370       .  A
N3268      C3269   1.369       .  A
C3269      N3270   1.353       .  A
O3272      V3279   1.906       .  S
O3272      C3282   1.263       .  A
O3273      C3283   1.264       .  A
O3274      V3279   1.910       .  S
O3275      V3280   1.912       .  S
O3275      C3284   1.264       .  A
O3277      V3280   1.900       .  S
O3278      C3281   1.262       .  A
C3281      C3409   1.474       .  S
C3282      C3287   1.465       .  S
C3283      C3293   1.476       .  S
C3284      C3405   1.479       .  S
C3285      N3286   1.346       .  A
C3285      N3290   1.355       .  A
N3286      C3287   1.350       .  A
C3287      N3288   1.368       .  A
N3288      C3289   1.371       .  A
C3289      N3290   1.360       .  A
C3291      N3292   1.348       .  A
C3291      N3296   1.353       .  A
N3292      C3293   1.353       .  A
C3293      N3294   1.373       .  A
N3294      C3295   1.375       .  A
C3295      N3296   1.357       .  A
O3297      V3305   1.915       .  S
O3297      C3307   1.270       .  A
O3298      V3841   1.919   1_554  S
O3298      C3308   1.266       .  A
O3299      V3841   1.907   1_554  S
O3299      C3309   1.262       .  A
O3300      V3305   1.903       .  S
O3300      C3310   1.267       .  A
O3301      V3842   1.912       .  S
O3301      C3310   1.264       .  A
O3302      V3306   1.912       .  S
O3302      C3309   1.270       .  A
O3303      V3306   1.905       .  S
O3303      C3308   1.267       .  A
O3304      V3842   1.909       .  S
O3304      C3307   1.262       .  A
V3305      O3834   1.918       .  S
V3305      O3835   1.908       .  S
V3305      V3842   2.086       .  T
V3306      O3837   1.914   1_554  S
V3306      O3840   1.909   1_554  S
V3306      V3841   2.086   1_554  T
C3307      C3321   1.478       .  S
C3308      C3393   1.480       .  S
C3309      C3397   1.475       .  S
C3310      C3313   1.473       .  S
C3311      C3693   1.487       .  S
C3311      N3312   1.350       .  A
C3311      N3316   1.354       .  A
N3312      C3313   1.353       .  A
C3313      N3314   1.370       .  A
N3314      C3315   1.370       .  A
C3315      N3316   1.356       .  A
C3317      C3684   1.487       .  S
C3317      N3318   1.352       .  A
C3317      N3322   1.354       .  A
N3318      C3319   1.355       .  A
C3319      N3320   1.372       .  A
N3320      C3321   1.373       .  A
C3321      N3322   1.355       .  A
O3323      V3331   1.907       .  S
O3323      C3333   1.262       .  A
O3324      V3331   1.904       .  S
O3324      C3334   1.267       .  A
O3325      V3331   1.907       .  S
O3325      C3335   1.268       .  A
O3326      V3331   1.907       .  S
O3326      C3336   1.263       .  A
O3327      V3332   1.909       .  S
O3327      C3336   1.268       .  A
O3328      V3332   1.916       .  S
O3328      C3335   1.265       .  A
O3329      V3332   1.910       .  S
O3329      C3334   1.264       .  A
O3330      V3332   1.908       .  S
O3330      C3333   1.268       .  A
V3331      V3332   2.087       .  T
C3333      C3417   1.471       .  S
C3334      C3387   1.473       .  S
C3335      C3391   1.479       .  S
C3336      C3411   1.474       .  S
O3337      V3881   1.916   1_554  S
O3337      C3347   1.266       .  A
O3338      V3345   1.913       .  S
O3339      V3345   1.902       .  S
O3340      V3881   1.904   1_554  S
O3340      C3350   1.262       .  A
O3341      V3346   1.909       .  S
O3342      V3882   1.907       .  S
O3342      C3349   1.263       .  A
O3343      V3882   1.910       .  S
O3343      C3348   1.263       .  A
O3344      V3346   1.912       .  S
V3345      O3873   1.916       .  S
V3345      O3876   1.904       .  S
V3346      O3878   1.906   1_554  S
V3346      O3879   1.909   1_554  S
C3347      C3381   1.486       .  S
C3348      C3359   1.480       .  S
C3349      C3355   1.469       .  S
C3350      C3385   1.475       .  S
C3351      N3352   1.354       .  A
C3351      N3356   1.353       .  A
N3352      C3353   1.357       .  A
C3353      N3354   1.367       .  A
N3354      C3355   1.367       .  A
C3355      N3356   1.355       .  A
C3357      N3358   1.356       .  A
C3357      N3362   1.349       .  A
N3358      C3359   1.357       .  A
C3359      N3360   1.373       .  A
N3360      C3361   1.371       .  A
C3361      N3362   1.351       .  A
O3363      V3371   1.906       .  S
O3363      C3373   1.267       .  A
O3364      V3371   1.911       .  S
O3364      C3374   1.263       .  A
O3365      V3371   1.926       .  S
O3365      C3375   1.267       .  A
O3366      V3371   1.915       .  S
O3366      C3376   1.270       .  A
O3367      V3372   1.903       .  S
O3367      C3376   1.261       .  A
O3368      V3372   1.906       .  S
O3368      C3375   1.268       .  A
O3369      V3372   1.910       .  S
O3369      C3374   1.269       .  A
O3370      V3372   1.912       .  S
O3370      C3373   1.264       .  A
V3371      V3372   2.086       .  T
C3373      C3423   1.474       .  S
C3374      C3379   1.478       .  S
C3375      C3399   1.486       .  S
C3376      C3403   1.475       .  S
C3377      N3378   1.351       .  A
C3377      N3382   1.356       .  A
N3378      C3379   1.355       .  A
C3379      N3380   1.370       .  A
N3380      C3381   1.373       .  A
C3381      N3382   1.362       .  A
C3383      N3384   1.353       .  A
C3383      N3388   1.351       .  A
N3384      C3385   1.358       .  A
C3385      N3386   1.370       .  A
N3386      C3387   1.368       .  A
C3387      N3388   1.355       .  A
C3389      C3621   1.465       .  S
C3389      N3390   1.350       .  A
C3389      N3394   1.350       .  A
N3390      C3391   1.356       .  A
C3391      N3392   1.374       .  A
N3392      C3393   1.374       .  A
C3393      N3394   1.356       .  A
C3395      C3609   1.477       .  S
C3395      N3396   1.349       .  A
C3395      N3400   1.353       .  A
N3396      C3397   1.354       .  A
C3397      N3398   1.375       .  A
N3398      C3399   1.374       .  A
C3399      N3400   1.356       .  A
C3401      N3402   1.353       .  A
C3401      N3406   1.353       .  A
N3402      C3403   1.353       .  A
C3403      N3404   1.371       .  A
N3404      C3405   1.371       .  A
C3405      N3406   1.356       .  A
C3407      N3408   1.353       .  A
C3407      N3412   1.354       .  A
N3408      C3409   1.355       .  A
C3409      N3410   1.370       .  A
N3410      C3411   1.369       .  A
C3411      N3412   1.355       .  A
C3413      C3573   1.487       .  S
C3413      N3414   1.355       .  A
C3413      N3418   1.352       .  A
N3414      C3415   1.358       .  A
C3415      N3416   1.369       .  A
N3416      C3417   1.368       .  A
C3417      N3418   1.353       .  A
C3419      C3561   1.481       .  S
C3419      N3420   1.352       .  A
C3419      N3424   1.352       .  A
N3420      C3421   1.355       .  A
C3421      N3422   1.372       .  A
N3422      C3423   1.371       .  A
C3423      N3424   1.353       .  A
N3425      C3429   1.349       .  A
N3425      H3457   1.041       .  S
N3426      C3433   1.351       .  A
N3426      C3434   1.352       .  A
N3427      C3431   1.352       .  A
N3427      H3458   1.040       .  S
N3428      C3435   1.348       .  A
N3428      C3436   1.348       .  A
C3429      C3437   1.388       .  A
C3429      C3445   1.410       .  A
C3430      C3446   1.407       .  A
C3430      C3438   1.386       .  A
C3431      C3439   1.392       .  A
C3431      C3448   1.422       .  A
C3432      C3447   1.413       .  A
C3432      C3440   1.384       .  A
C3433      C3445   1.415       .  A
C3433      C3441   1.385       .  A
C3434      C3448   1.416       .  A
C3434      C3442   1.388       .  A
C3435      C3443   1.387       .  A
C3435      C3446   1.408       .  A
C3436      C3444   1.385       .  A
C3436      C3447   1.406       .  A
C3437      H3449   1.082       .  S
C3438      H3450   1.083       .  S
C3439      H3451   1.080       .  S
C3440      H3452   1.082       .  S
C3441      C3442   1.370       .  A
C3441      H3453   1.082       .  S
C3442      H3454   1.081       .  S
C3443      C3444   1.372       .  A
C3443      H3455   1.082       .  S
C3444      H3456   1.082       .  S
C3445      C3648   1.488       .  S
C3446      C3633   1.483       .  S
C3447      C3624   1.487       .  S
C3448      C3612   1.488       .  S
N3459      C3464   1.346       .  A
N3459      C3463   1.347       .  A
N3459      H3491   1.044       .  S
N3460      C3467   1.348       .  A
N3460      C3468   1.346       .  A
N3461      C3466   1.349       .  A
N3461      C3465   1.348       .  A
N3461      H3492   1.043       .  S
N3462      C3469   1.346       .  A
N3462      C3470   1.347       .  A
C3463      C3471   1.385       .  A
C3463      C3479   1.404       .  A
C3464      C3480   1.404       .  A
C3464      C3472   1.386       .  A
C3465      C3473   1.387       .  A
C3465      C3482   1.408       .  A
C3466      C3481   1.408       .  A
C3466      C3474   1.387       .  A
C3467      C3479   1.405       .  A
C3467      C3475   1.381       .  A
C3468      C3482   1.405       .  A
C3468      C3476   1.384       .  A
C3469      C3477   1.380       .  A
C3469      C3480   1.404       .  A
C3470      C3478   1.385       .  A
C3470      C3481   1.405       .  A
C3471      C3472   1.376       .  A
C3471      H3483   1.081       .  S
C3472      H3484   1.081       .  S
C3473      C3474   1.379       .  A
C3473      H3485   1.082       .  S
C3474      H3486   1.082       .  S
C3475      C3476   1.375       .  A
C3475      H3487   1.078       .  S
C3476      H3488   1.080       .  S
C3477      C3478   1.375       .  A
C3477      H3489   1.075       .  S
C3478      H3490   1.083       .  S
C3479      C3588   1.487       .  S
C3480      C3600   1.484       .  S
C3481      C3564   1.484       .  S
C3482      C3576   1.483       .  S
N3493      C3498   1.347       .  A
N3493      C3497   1.348       .  A
N3493      H3525   1.041       .  S
N3494      C3501   1.348       .  A
N3494      C3502   1.346       .  A
N3495      C3500   1.350       .  A
N3495      C3499   1.350       .  A
N3495      H3526   1.042       .  S
N3496      C3503   1.345       .  A
N3496      C3504   1.348       .  A
C3497      C3505   1.387       .  A
C3497      C3513   1.409       .  A
C3498      C3514   1.408       .  A
C3498      C3506   1.387       .  A
C3499      C3507   1.388       .  A
C3499      C3516   1.414       .  A
C3500      C3515   1.409       .  A
C3500      C3508   1.385       .  A
C3501      C3513   1.407       .  A
C3501      C3509   1.386       .  A
C3502      C3516   1.407       .  A
C3502      C3510   1.386       .  A
C3503      C3511   1.387       .  A
C3503      C3514   1.406       .  A
C3504      C3512   1.386       .  A
C3504      C3515   1.406       .  A
C3505      C3506   1.380       .  A
C3505      H3517   1.082       .  S
C3506      H3518   1.083       .  S
C3507      C3508   1.379       .  A
C3507      H3519   1.082       .  S
C3508      H3520   1.082       .  S
C3509      C3510   1.374       .  A
C3509      H3521   1.082       .  S
C3510      H3522   1.082       .  S
C3511      C3512   1.374       .  A
C3511      H3523   1.082       .  S
C3512      H3524   1.082       .  S
C3513      C3729   1.486       .  S
C3514      C3717   1.476       .  S
C3515      C3705   1.490       .  S
C3516      C3744   1.491       .  S
N3527      C3531   1.350       .  A
N3527      H3559   1.043       .  S
N3528      C3535   1.349       .  A
N3528      C3536   1.349       .  A
N3529      C3533   1.348       .  A
N3529      H3560   1.041       .  S
N3530      C3537   1.345       .  A
N3530      C3538   1.345       .  A
C3531      C3539   1.387       .  A
C3531      C3547   1.411       .  A
C3532      C3548   1.411       .  A
C3532      C3540   1.387       .  A
C3533      C3541   1.386       .  A
C3533      C3550   1.408       .  A
C3534      C3549   1.412       .  A
C3534      C3542   1.388       .  A
C3535      C3547   1.409       .  A
C3535      C3543   1.386       .  A
C3536      C3550   1.411       .  A
C3536      C3544   1.387       .  A
C3537      C3545   1.387       .  A
C3537      C3548   1.406       .  A
C3538      C3546   1.387       .  A
C3538      C3549   1.405       .  A
C3539      H3551   1.082       .  S
C3540      H3552   1.082       .  S
C3541      H3553   1.082       .  S
C3542      H3554   1.082       .  S
C3543      C3544   1.376       .  A
C3543      H3555   1.082       .  S
C3544      H3556   1.082       .  S
C3545      C3546   1.375       .  A
C3545      H3557   1.082       .  S
C3546      H3558   1.082       .  S
C3547      C3681   1.490       .  S
C3548      C3696   1.485       .  S
C3549      C3660   1.486       .  S
C3550      C3669   1.489       .  S
C3561      C3562   1.407       .  A
C3561      C3566   1.415       .  A
C3562      C3563   1.394       .  A
C3562      H3567   1.085       .  S
C3563      C3564   1.408       .  A
C3563      C3570   1.444       .  S
C3564      C3565   1.403       .  A
C3565      C3566   1.397       .  A
C3565      H3568   1.085       .  S
C3566      C3569   1.443       .  S
C3569      N3571   1.157       .  T
C3570      N3572   1.157       .  T
C3573      C3574   1.409       .  A
C3573      C3578   1.417       .  A
C3574      C3575   1.396       .  A
C3574      H3579   1.085       .  S
C3575      C3576   1.407       .  A
C3575      C3582   1.444       .  S
C3576      C3577   1.401       .  A
C3577      C3578   1.398       .  A
C3577      H3580   1.085       .  S
C3578      C3581   1.443       .  S
C3581      N3583   1.157       .  T
C3582      N3584   1.157       .  T
C3585      C3586   1.408       .  A
C3585      C3590   1.418       .  A
C3586      C3587   1.398       .  A
C3586      H3591   1.085   1_565  S
C3587      C3588   1.409       .  A
C3587      C3594   1.442       .  S
C3588      C3589   1.400       .  A
C3589      C3590   1.397       .  A
C3589      H3592   1.085       .  S
C3593      N3595   1.157       .  T
C3594      N3596   1.156       .  T
C3597      C3598   1.407       .  A
C3597      C3602   1.417       .  A
C3598      C3599   1.395       .  A
C3599      C3600   1.408       .  A
C3599      C3606   1.443       .  S
C3600      C3601   1.401       .  A
C3601      C3602   1.397       .  A
C3601      H3604   1.085       .  S
C3602      C3605   1.442       .  S
C3605      N3607   1.156       .  T
C3606      N3608   1.156       .  T
C3609      C3610   1.406       .  A
C3609      C3614   1.408       .  A
C3610      C3611   1.403       .  A
C3610      H3615   1.084       .  S
C3611      C3612   1.413       .  A
C3611      C3618   1.444       .  S
C3612      C3613   1.399       .  A
C3613      C3614   1.389       .  A
C3613      H3616   1.086       .  S
C3614      C3617   1.435       .  S
C3617      N3619   1.154       .  T
C3618      N4156   1.157   1_554  T
N3620      C4154   1.157       .  T
C3621      C3622   1.400       .  A
C3621      C3626   1.407       .  A
C3622      C3623   1.398       .  A
C3622      H3627   1.081       .  S
C3623      C3624   1.413       .  A
C3623      C3630   1.444       .  S
C3624      C3625   1.403       .  A
C3625      C3626   1.395       .  A
C3625      H3628   1.085       .  S
C3626      C3629   1.440       .  S
C3629      N3631   1.156       .  T
C3630      N3632   1.157       .  T
C3633      C3634   1.402       .  A
C3633      C3638   1.408       .  A
C3634      C3635   1.397       .  A
C3634      H3639   1.085       .  S
C3635      C3636   1.410       .  A
C3636      C3637   1.402       .  A
C3637      C3638   1.398       .  A
C3637      H3640   1.081       .  S
C3638      C3641   1.444       .  S
C3641      N3643   1.157       .  T
C3642      N3644   1.157       .  T
C3645      C3646   1.405       .  A
C3645      C3650   1.411       .  A
C3646      C3647   1.403       .  A
C3646      H3651   1.080       .  S
C3647      C3648   1.408       .  A
C3647      C3654   1.444       .  S
C3648      C3649   1.401       .  A
C3649      C3650   1.396       .  A
C3649      H3652   1.085       .  S
C3650      C3653   1.442   1_565  S
C3654      N3656   1.157       .  T
C3657      C3658   1.408       .  A
C3657      C3662   1.421       .  A
C3658      C3659   1.397       .  A
C3658      H3663   1.084       .  S
C3659      C3660   1.411       .  A
C3659      C3666   1.445       .  S
C3660      C3661   1.398       .  A
C3661      C3662   1.394       .  A
C3661      H3664   1.086       .  S
C3662      C3665   1.443       .  S
C3666      N4204   1.157       .  T
N3668      C4202   1.157       .  T
C3669      C3670   1.400       .  A
C3669      C3674   1.412       .  A
C3670      C3671   1.397       .  A
C3670      H3675   1.085       .  S
C3671      C3672   1.418       .  A
C3671      C3678   1.443       .  S
C3672      C3673   1.408       .  A
C3673      C3674   1.399       .  A
C3674      C3677   1.446       .  S
C3677      N3679   1.157       .  T
C3678      N3680   1.157       .  T
C3681      C3682   1.402       .  A
C3681      C3686   1.411       .  A
C3682      C3683   1.397       .  A
C3682      H3687   1.085       .  S
C3683      C3684   1.417       .  A
C3683      C3690   1.442       .  S
C3684      C3685   1.408       .  A
C3685      C3686   1.398       .  A
C3685      H3688   1.085       .  S
C3686      C3689   1.444       .  S
C3689      N3691   1.157       .  T
C3690      N3692   1.156       .  T
C3693      C3694   1.409       .  A
C3693      C3698   1.419       .  A
C3694      C3695   1.398       .  A
C3694      H3699   1.084       .  S
C3695      C3696   1.408       .  A
C3695      C3702   1.445       .  S
C3696      C3697   1.400       .  A
C3697      C3698   1.395       .  A
C3697      H3700   1.086       .  S
C3698      C3701   1.444       .  S
C3701      N3703   1.157       .  T
C3702      N3704   1.157       .  T
C3705      C3706   1.404       .  A
C3705      C3710   1.414       .  A
C3706      C3707   1.397       .  A
C3706      H3711   1.085       .  S
C3707      C3708   1.410       .  A
C3707      C3714   1.443       .  S
C3708      C3709   1.399       .  A
C3709      C3710   1.397       .  A
C3710      C3713   1.443       .  S
C3713      N3715   1.157       .  T
C3714      N3716   1.156       .  T
C3717      C3718   1.397       .  A
C3717      C3722   1.410       .  A
C3718      C3719   1.390       .  A
C3718      H3723   1.086       .  S
C3719      C3720   1.409       .  A
C3719      C3726   1.438       .  S
C3720      C3721   1.402       .  A
C3721      C3722   1.400       .  A
C3721      H3724   1.084       .  S
C3722      C3725   1.443       .  S
C3725      N3727   1.157       .  T
C3726      N3728   1.155       .  T
C3729      C3730   1.405       .  A
C3729      C3734   1.413       .  A
C3730      C3731   1.396       .  A
C3730      H3735   1.085       .  S
C3731      C3732   1.409       .  A
C3731      C3738   1.443       .  S
C3732      C3733   1.402       .  A
C3733      C3734   1.397       .  A
C3733      H3736   1.085       .  S
C3734      C3737   1.444       .  S
C3737      N3739   1.157       .  T
C3738      N3740   1.157       .  T
C3741      C3742   1.402       .  A
C3741      C3746   1.412       .  A
C3742      C3743   1.399       .  A
C3742      H3747   1.085       .  S
C3743      C3744   1.416       .  A
C3743      C3750   1.445       .  S
C3744      C3745   1.403       .  A
C3745      C3746   1.394       .  A
C3745      H3748   1.085       .  S
C3746      C3749   1.442       .  S
C3749      N3751   1.157       .  T
C3750      N3752   1.157       .  T
O3753      V3761   1.910       .  S
O3753      C3763   1.264       .  A
O3754      V3761   1.915       .  S
O3754      C3764   1.270       .  A
O3755      V3761   1.910       .  S
O3755      C3765   1.268       .  A
O3756      V3761   1.912       .  S
O3756      C3766   1.263       .  A
O3757      V3762   1.904       .  S
O3757      C3766   1.267       .  A
O3758      V3762   1.903       .  S
O3758      C3765   1.262       .  A
O3759      V3762   1.915       .  S
O3759      C3764   1.265       .  A
O3760      V3762   1.909       .  S
O3760      C3763   1.268       .  A
V3761      V3762   2.087       .  T
C3763      C3851   1.475       .  S
C3764      C3831   1.485       .  S
C3765      C3799   1.473       .  S
C3766      C3897   1.474       .  S
O3767      V3775   1.909       .  S
O3767      C3777   1.264       .  A
O3768      V3775   1.908       .  S
O3768      C3778   1.269       .  A
O3769      V3775   1.899       .  S
O3769      C3779   1.265       .  A
O3770      V3775   1.901       .  S
O3770      C3780   1.261       .  A
O3771      V3776   1.909       .  S
O3771      C3780   1.268       .  A
O3772      V3776   1.910       .  S
O3772      C3779   1.264       .  A
O3773      V3776   1.917       .  S
O3773      C3778   1.265       .  A
O3774      V3776   1.912       .  S
O3774      C3777   1.268       .  A
V3775      V3776   2.087       .  T
C3777      C3825   1.478       .  S
C3778      C3855   1.482       .  S
C3779      C3889   1.470       .  S
C3780      C3803   1.471       .  S
O3781      V3789   1.908       .  S
O3781      C3791   1.268       .  A
O3782      C3792   1.265       .  A
O3783      V3789   1.904       .  S
O3783      C3793   1.261       .  A
O3784      C3794   1.265       .  A
O3785      C3794   1.263       .  A
O3786      V3790   1.908       .  S
O3786      C3793   1.269       .  A
O3787      C3792   1.266       .  A
O3788      V3790   1.902       .  S
O3788      C3791   1.261       .  A
V3789      V3790   2.088       .  T
C3791      C3805   1.470       .  S
C3792      C3951   1.475       .  S
C3793      C3957   1.474       .  S
C3794      C3797   1.464       .  S
C3795      C4277   1.473       .  S
C3795      N3796   1.350       .  A
C3795      N3800   1.356       .  A
N3796      C3797   1.353       .  A
C3797      N3798   1.365       .  A
N3798      C3799   1.367       .  A
C3799      N3800   1.359       .  A
C3801      C4268   1.466       .  S
C3801      N3802   1.352       .  A
C3801      N3806   1.350       .  A
N3802      C3803   1.355       .  A
C3803      N3804   1.370       .  A
N3804      C3805   1.369       .  A
C3805      N3806   1.353       .  A
O3808      V3815   1.905       .  S
O3808      C3818   1.262       .  A
O3809      C3819   1.264       .  A
O3810      V3815   1.909       .  S
O3811      V3816   1.912       .  S
O3811      C3820   1.264       .  A
O3813      V3816   1.902       .  S
O3814      C3817   1.263       .  A
C3817      C3945   1.475       .  S
C3818      C3823   1.466       .  S
C3819      C3829   1.478       .  S
C3820      C3941   1.478       .  S
C3821      N3822   1.347       .  A
C3821      N3826   1.355       .  A
N3822      C3823   1.350       .  A
C3823      N3824   1.368       .  A
N3824      C3825   1.371       .  A
C3825      N3826   1.360       .  A
C3827      N3828   1.348       .  A
C3827      N3832   1.354       .  A
N3828      C3829   1.352       .  A
C3829      N3830   1.374       .  A
N3830      C3831   1.375       .  A
C3831      N3832   1.359       .  A
O3833      V3841   1.916       .  S
O3833      C3843   1.270       .  A
O3834      C3844   1.266       .  A
O3835      C3845   1.262       .  A
O3836      V3841   1.903       .  S
O3836      C3846   1.267       .  A
O3837      C3846   1.264       .  A
O3838      V3842   1.910       .  S
O3838      C3845   1.269       .  A
O3839      V3842   1.905       .  S
O3839      C3844   1.267       .  A
O3840      C3843   1.262       .  A
C3843      C3857   1.480       .  S
C3844      C3929   1.480       .  S
C3845      C3933   1.474       .  S
C3846      C3849   1.475       .  S
C3847      C4229   1.488       .  S
C3847      N3848   1.351       .  A
C3847      N3852   1.354       .  A
N3848      C3849   1.353       .  A
C3849      N3850   1.370       .  A
N3850      C3851   1.371       .  A
C3851      N3852   1.357       .  A
C3853      C4220   1.487       .  S
C3853      N3854   1.352       .  A
C3853      N3858   1.354       .  A
N3854      C3855   1.355       .  A
C3855      N3856   1.373       .  A
N3856      C3857   1.374       .  A
C3857      N3858   1.355       .  A
O3859      V3867   1.909       .  S
O3859      C3869   1.263       .  A
O3860      V3867   1.906       .  S
O3860      C3870   1.267       .  A
O3861      V3867   1.909       .  S
O3861      C3871   1.268       .  A
O3862      V3867   1.910       .  S
O3862      C3872   1.263       .  A
O3863      V3868   1.910       .  S
O3863      C3872   1.269       .  A
O3864      V3868   1.915       .  S
O3864      C3871   1.265       .  A
O3865      V3868   1.907       .  S
O3865      C3870   1.263       .  A
O3866      V3868   1.905       .  S
O3866      C3869   1.267       .  A
V3867      V3868   2.087       .  T
C3869      C3953   1.471       .  S
C3870      C3923   1.472       .  S
C3871      C3927   1.480       .  S
C3872      C3947   1.476       .  S
O3873      C3883   1.266       .  A
O3874      V3881   1.913       .  S
O3875      V3881   1.901       .  S
O3876      C3886   1.262       .  A
O3877      V3882   1.909       .  S
O3878      C3885   1.263       .  A
O3879      C3884   1.263       .  A
O3880      V3882   1.911       .  S
C3883      C3917   1.485       .  S
C3884      C3895   1.479       .  S
C3885      C3891   1.467       .  S
C3886      C3921   1.474       .  S
C3887      N3888   1.355       .  A
C3887      N3892   1.352       .  A
N3888      C3889   1.357       .  A
C3889      N3890   1.366       .  A
N3890      C3891   1.366       .  A
C3891      N3892   1.355       .  A
C3893      N3894   1.355       .  A
C3893      N3898   1.349       .  A
N3894      C3895   1.357       .  A
C3895      N3896   1.373       .  A
N3896      C3897   1.370       .  A
C3897      N3898   1.351       .  A
O3899      V3907   1.906       .  S
O3899      C3909   1.267       .  A
O3900      V3907   1.910       .  S
O3900      C3910   1.263       .  A
O3901      V3907   1.924       .  S
O3901      C3911   1.267       .  A
O3902      V3907   1.914       .  S
O3902      C3912   1.270       .  A
O3903      V3908   1.904       .  S
O3903      C3912   1.261       .  A
O3904      V3908   1.904       .  S
O3904      C3911   1.267       .  A
O3905      V3908   1.908       .  S
O3905      C3910   1.268       .  A
O3906      V3908   1.911       .  S
O3906      C3909   1.264       .  A
V3907      V3908   2.086       .  T
C3909      C3959   1.473       .  S
C3910      C3915   1.475       .  S
C3911      C3935   1.483       .  S
C3912      C3939   1.475       .  S
C3913      N3914   1.350       .  A
C3913      N3918   1.356       .  A
N3914      C3915   1.354       .  A
C3915      N3916   1.370       .  A
N3916      C3917   1.372       .  A
C3917      N3918   1.362       .  A
C3919      N3920   1.353       .  A
C3919      N3924   1.351       .  A
N3920      C3921   1.358       .  A
C3921      N3922   1.370       .  A
N3922      C3923   1.368       .  A
C3923      N3924   1.354       .  A
C3925      C4157   1.466       .  S
C3925      N3926   1.350       .  A
C3925      N3930   1.350       .  A
N3926      C3927   1.356       .  A
C3927      N3928   1.374       .  A
N3928      C3929   1.374       .  A
C3929      N3930   1.356       .  A
C3931      C4145   1.478       .  S
C3931      N3932   1.350       .  A
C3931      N3936   1.352       .  A
N3932      C3933   1.354       .  A
C3933      N3934   1.375       .  A
N3934      C3935   1.373       .  A
C3935      N3936   1.355       .  A
C3937      N3938   1.353       .  A
C3937      N3942   1.353       .  A
N3938      C3939   1.353       .  A
C3939      N3940   1.371       .  A
N3940      C3941   1.371       .  A
C3941      N3942   1.356       .  A
C3943      N3944   1.351       .  A
C3943      N3948   1.354       .  A
N3944      C3945   1.354       .  A
C3945      N3946   1.371       .  A
N3946      C3947   1.371       .  A
C3947      N3948   1.356       .  A
C3949      C4109   1.486       .  S
C3949      N3950   1.355       .  A
C3949      N3954   1.353       .  A
N3950      C3951   1.359       .  A
C3951      N3952   1.369       .  A
N3952      C3953   1.368       .  A
C3953      N3954   1.353       .  A
C3955      C4097   1.481       .  S
C3955      N3956   1.353       .  A
C3955      N3960   1.352       .  A
N3956      C3957   1.356       .  A
C3957      N3958   1.371       .  A
N3958      C3959   1.370       .  A
C3959      N3960   1.353       .  A
N3961      C3965   1.349       .  A
N3961      H3993   1.039       .  S
N3962      C3969   1.352       .  A
N3962      C3970   1.352       .  A
N3963      C3967   1.352       .  A
N3963      H3994   1.037       .  S
N3964      C3971   1.348       .  A
N3964      C3972   1.348       .  A
C3965      C3973   1.388       .  A
C3965      C3981   1.411       .  A
C3966      C3982   1.408       .  A
C3966      C3974   1.386       .  A
C3967      C3975   1.392       .  A
C3967      C3984   1.423       .  A
C3968      C3983   1.414       .  A
C3968      C3976   1.384       .  A
C3969      C3981   1.415       .  A
C3969      C3977   1.385       .  A
C3970      C3984   1.417       .  A
C3970      C3978   1.388       .  A
C3971      C3979   1.387       .  A
C3971      C3982   1.408       .  A
C3972      C3980   1.385       .  A
C3972      C3983   1.406       .  A
C3973      H3985   1.083       .  S
C3974      H3986   1.083       .  S
C3975      H3987   1.079       .  S
C3976      H3988   1.082       .  S
C3977      C3978   1.370       .  A
C3977      H3989   1.082       .  S
C3978      H3990   1.081       .  S
C3979      C3980   1.371       .  A
C3979      H3991   1.082       .  S
C3980      H3992   1.082       .  S
C3981      C4184   1.488       .  S
C3982      C4169   1.481       .  S
C3983      C4160   1.488       .  S
C3984      C4148   1.489       .  S
N3995      C4000   1.346       .  A
N3995      C3999   1.347       .  A
N3995      H4027   1.044       .  S
N3996      C4003   1.347       .  A
N3996      C4004   1.346       .  A
N3997      C4002   1.349       .  A
N3997      C4001   1.348       .  A
N3997      H4028   1.043       .  S
N3998      C4005   1.346       .  A
N3998      C4006   1.347       .  A
C3999      C4007   1.384       .  A
C3999      C4015   1.404       .  A
C4000      C4016   1.404       .  A
C4000      C4008   1.386       .  A
C4001      C4009   1.387       .  A
C4001      C4018   1.408       .  A
C4002      C4017   1.408       .  A
C4002      C4010   1.387       .  A
C4003      C4015   1.405       .  A
C4003      C4011   1.382       .  A
C4004      C4018   1.405       .  A
C4004      C4012   1.384       .  A
C4005      C4013   1.381       .  A
C4005      C4016   1.404       .  A
C4006      C4014   1.385       .  A
C4006      C4017   1.404       .  A
C4007      C4008   1.377       .  A
C4007      H4019   1.080       .  S
C4008      H4020   1.081       .  S
C4009      C4010   1.379       .  A
C4009      H4021   1.082       .  S
C4010      H4022   1.082       .  S
C4011      C4012   1.376       .  A
C4011      H4023   1.078       .  S
C4012      H4024   1.080       .  S
C4013      C4014   1.375       .  A
C4013      H4025   1.076       .  S
C4014      H4026   1.083       .  S
C4015      C4124   1.487       .  S
C4016      C4136   1.485       .  S
C4017      C4100   1.484       .  S
C4018      C4112   1.483       .  S
N4029      C4034   1.347       .  A
N4029      C4033   1.349       .  A
N4029      H4061   1.041       .  S
N4030      C4037   1.348       .  A
N4030      C4038   1.346       .  A
N4031      C4036   1.350       .  A
N4031      C4035   1.350       .  A
N4031      H4062   1.042       .  S
N4032      C4039   1.345       .  A
N4032      C4040   1.348       .  A
C4033      C4041   1.387       .  A
C4033      C4049   1.409       .  A
C4034      C4050   1.408       .  A
C4034      C4042   1.387       .  A
C4035      C4043   1.389       .  A
C4035      C4052   1.415       .  A
C4036      C4051   1.409       .  A
C4036      C4044   1.384       .  A
C4037      C4049   1.408       .  A
C4037      C4045   1.386       .  A
C4038      C4052   1.408       .  A
C4038      C4046   1.387       .  A
C4039      C4047   1.387       .  A
C4039      C4050   1.405       .  A
C4040      C4048   1.386       .  A
C4040      C4051   1.406       .  A
C4041      C4042   1.380       .  A
C4041      H4053   1.082       .  S
C4042      H4054   1.083       .  S
C4043      C4044   1.379       .  A
C4043      H4055   1.082       .  S
C4044      H4056   1.082       .  S
C4045      C4046   1.375       .  A
C4045      H4057   1.082       .  S
C4046      H4058   1.082       .  S
C4047      C4048   1.373       .  A
C4047      H4059   1.082       .  S
C4048      H4060   1.082       .  S
C4049      C4265   1.486       .  S
C4050      C4253   1.475       .  S
C4051      C4241   1.491       .  S
C4052      C4280   1.490       .  S
N4063      C4067   1.350       .  A
N4063      H4095   1.045       .  S
N4064      C4071   1.348       .  A
N4064      C4072   1.349       .  A
N4065      C4069   1.348       .  A
N4065      H4096   1.044       .  S
N4066      C4073   1.346       .  A
N4066      C4074   1.346       .  A
C4067      C4075   1.387       .  A
C4067      C4083   1.411       .  A
C4068      C4084   1.412       .  A
C4068      C4076   1.387       .  A
C4069      C4077   1.386       .  A
C4069      C4086   1.408       .  A
C4070      C4085   1.411       .  A
C4070      C4078   1.388       .  A
C4071      C4083   1.409       .  A
C4071      C4079   1.386       .  A
C4072      C4086   1.411       .  A
C4072      C4080   1.387       .  A
C4073      C4081   1.387       .  A
C4073      C4084   1.406       .  A
C4074      C4082   1.386       .  A
C4074      C4085   1.406       .  A
C4075      H4087   1.082       .  S
C4076      H4088   1.082       .  S
C4077      H4089   1.082       .  S
C4078      H4090   1.082       .  S
C4079      C4080   1.375       .  A
C4079      H4091   1.082       .  S
C4080      H4092   1.082       .  S
C4081      C4082   1.375       .  A
C4081      H4093   1.082       .  S
C4082      H4094   1.082       .  S
C4083      C4217   1.489       .  S
C4084      C4232   1.486       .  S
C4085      C4196   1.485       .  S
C4086      C4205   1.489       .  S
C4097      C4098   1.407       .  A
C4097      C4102   1.415       .  A
C4098      C4099   1.396       .  A
C4098      H4103   1.085       .  S
C4099      C4100   1.408       .  A
C4099      C4106   1.444       .  S
C4100      C4101   1.402       .  A
C4101      C4102   1.397       .  A
C4101      H4104   1.085       .  S
C4102      C4105   1.444       .  S
C4105      N4107   1.157       .  T
C4106      N4108   1.157       .  T
C4109      C4110   1.409       .  A
C4109      C4114   1.417       .  A
C4110      C4111   1.396       .  A
C4110      H4115   1.085       .  S
C4111      C4112   1.407       .  A
C4111      C4118   1.444       .  S
C4112      C4113   1.401       .  A
C4113      C4114   1.398       .  A
C4113      H4116   1.085       .  S
C4114      C4117   1.442       .  S
C4117      N4119   1.157       .  T
C4118      N4120   1.157       .  T
C4121      C4122   1.407       .  A
C4121      C4126   1.419       .  A
C4122      C4123   1.397       .  A
C4122      H4127   1.085   1_565  S
C4123      C4124   1.409       .  A
C4123      C4130   1.441       .  S
C4124      C4125   1.400       .  A
C4125      C4126   1.397       .  A
C4125      H4128   1.085       .  S
C4129      N4131   1.157       .  T
C4130      N4132   1.156       .  T
C4133      C4134   1.407       .  A
C4133      C4138   1.418       .  A
C4134      C4135   1.395       .  A
C4135      C4136   1.408       .  A
C4135      C4142   1.442       .  S
C4136      C4137   1.401       .  A
C4137      C4138   1.397       .  A
C4137      H4140   1.085       .  S
C4138      C4141   1.443       .  S
C4141      N4143   1.157       .  T
C4142      N4144   1.156       .  T
C4145      C4146   1.406       .  A
C4145      C4150   1.409       .  A
C4146      C4147   1.402       .  A
C4146      H4151   1.084       .  S
C4147      C4148   1.414       .  A
C4147      C4154   1.444       .  S
C4148      C4149   1.399       .  A
C4149      C4150   1.389       .  A
C4149      H4152   1.086       .  S
C4150      C4153   1.436       .  S
C4153      N4155   1.154       .  T
C4157      C4158   1.400       .  A
C4157      C4162   1.407       .  A
C4158      C4159   1.399       .  A
C4158      H4163   1.082       .  S
C4159      C4160   1.413       .  A
C4159      C4166   1.444       .  S
C4160      C4161   1.402       .  A
C4161      C4162   1.395       .  A
C4161      H4164   1.085       .  S
C4162      C4165   1.439       .  S
C4165      N4167   1.155       .  T
C4166      N4168   1.157       .  T
C4169      C4170   1.400       .  A
C4169      C4174   1.409       .  A
C4170      C4171   1.396       .  A
C4170      H4175   1.085       .  S
C4171      C4172   1.410       .  A
C4172      C4173   1.402       .  A
C4173      C4174   1.398       .  A
C4173      H4176   1.082       .  S
C4174      C4177   1.444       .  S
C4177      N4179   1.157       .  T
C4178      N4180   1.156       .  T
C4181      C4182   1.404       .  A
C4181      C4186   1.410       .  A
C4182      C4183   1.403       .  A
C4182      H4187   1.080       .  S
C4183      C4184   1.409       .  A
C4183      C4190   1.444       .  S
C4184      C4185   1.401       .  A
C4185      C4186   1.396       .  A
C4185      H4188   1.085       .  S
C4186      C4189   1.442   1_565  S
C4190      N4192   1.157       .  T
C4193      C4194   1.408       .  A
C4193      C4198   1.421       .  A
C4194      C4195   1.397       .  A
C4194      H4199   1.084       .  S
C4195      C4196   1.410       .  A
C4195      C4202   1.445       .  S
C4196      C4197   1.399       .  A
C4197      C4198   1.395       .  A
C4197      H4200   1.086       .  S
C4198      C4201   1.443       .  S
C4205      C4206   1.400       .  A
C4205      C4210   1.411       .  A
C4206      C4207   1.397       .  A
C4206      H4211   1.085       .  S
C4207      C4208   1.419       .  A
C4207      C4214   1.443       .  S
C4208      C4209   1.408       .  A
C4209      C4210   1.398       .  A
C4210      C4213   1.446       .  S
C4213      N4215   1.157       .  T
C4214      N4216   1.157       .  T
C4217      C4218   1.402       .  A
C4217      C4222   1.411       .  A
C4218      C4219   1.397       .  A
C4218      H4223   1.085       .  S
C4219      C4220   1.417       .  A
C4219      C4226   1.441       .  S
C4220      C4221   1.407       .  A
C4221      C4222   1.398       .  A
C4221      H4224   1.085       .  S
C4222      C4225   1.444       .  S
C4225      N4227   1.157   1_556  T
C4226      N4228   1.156       .  T
C4229      C4230   1.409       .  A
C4229      C4234   1.419       .  A
C4230      C4231   1.399       .  A
C4230      H4235   1.084       .  S
C4231      C4232   1.409       .  A
C4231      C4238   1.445       .  S
C4232      C4233   1.400       .  A
C4233      C4234   1.395       .  A
C4233      H4236   1.086       .  S
C4234      C4237   1.445       .  S
C4237      N4239   1.157       .  T
C4238      N4240   1.157       .  T
C4241      C4242   1.404       .  A
C4241      C4246   1.415       .  A
C4242      C4243   1.398       .  A
C4242      H4247   1.085       .  S
C4243      C4244   1.410       .  A
C4243      C4250   1.443       .  S
C4244      C4245   1.400       .  A
C4245      C4246   1.398       .  A
C4246      C4249   1.443       .  S
C4249      N4251   1.157       .  T
C4250      N4252   1.156       .  T
C4253      C4254   1.396       .  A
C4253      C4258   1.410       .  A
C4254      C4255   1.389       .  A
C4254      H4259   1.086       .  S
C4255      C4256   1.408       .  A
C4255      C4262   1.438       .  S
C4256      C4257   1.403       .  A
C4257      C4258   1.400       .  A
C4257      H4260   1.084       .  S
C4258      C4261   1.443       .  S
C4261      N4263   1.157       .  T
C4262      N4264   1.155       .  T
C4265      C4266   1.404       .  A
C4265      C4270   1.413       .  A
C4266      C4267   1.395       .  A
C4266      H4271   1.085       .  S
C4267      C4268   1.408       .  A
C4267      C4274   1.443       .  S
C4268      C4269   1.402       .  A
C4269      C4270   1.398       .  A
C4269      H4272   1.085       .  S
C4270      C4273   1.444       .  S
C4273      N4275   1.157       .  T
C4274      N4276   1.157       .  T
C4277      C4278   1.403       .  A
C4277      C4282   1.412       .  A
C4278      C4279   1.400       .  A
C4278      H4283   1.085       .  S
C4279      C4280   1.416       .  A
C4279      C4286   1.445       .  S
C4280      C4281   1.402       .  A
C4281      C4282   1.393       .  A
C4281      H4284   1.085       .  S
C4282      C4285   1.442       .  S
C4285      N4287   1.157       .  T
C4286      N4288   1.157       .  T
