geometry optimzed in LAMMPS
_audit_creation_date              2020-11-30 
_audit_creation_method            'lammps2cif' 
_symmetry_space_group_name_H-M    'P1' 
_symmetry_Int_Tables_number       1 
_symmetry_cell_setting            triclinic 
loop_ 
_symmetry_equiv_pos_as_xyz 
  x,y,z 
_cell_length_a                    38.49780869 
_cell_length_b                    115.49794101658634 
_cell_length_c                    23.91804447737755 
_cell_angle_alpha                 91.6517681933495 
_cell_angle_beta                  89.6219131760417 
_cell_angle_gamma                 89.94535109671288 
loop_ 
_atom_site_label 
_atom_site_type_symbol 
_atom_site_fract_x 
_atom_site_fract_y 
_atom_site_fract_z 
_atom_site_charge 
O1          O  0.45358053  0.06587111  0.37611952    -0.57300
C2          C  0.37785104  0.06109541  0.50359062     0.75300
O3          O  0.34739530  0.08076578  0.36685901    -0.58500
C4          C  0.45366514  0.06489991  0.32314324     0.75300
C5          C  0.35169429  0.04454265  0.36206349     0.77700
Cd6        Cd  0.38969834  0.06540180  0.38786614     1.37500
O7          O  0.40384652  0.05669091  0.47802702    -0.57300
O8          O  0.37707564  0.04513338  0.39499252    -0.56100
C9          C  0.36769817  0.08903534  0.38025256     0.77600
O10         O  0.34418538  0.05367901  0.33618432    -0.58500
O11         O  0.36149507  0.06894707  0.47902173    -0.57000
O12         O  0.42431676  0.06390582  0.29985516    -0.56900
O13         O  0.39793494  0.08635855  0.39588196    -0.56100
O14         O  0.48684807  0.06407086  0.23744061    -0.57300
C15         C  0.06026977  0.05887116  0.11145326     0.75300
O16         O  0.09369554  0.08016870  0.25594086    -0.58500
C17         C  0.48632154  0.06494595  0.29055472     0.75300
C18         C  0.08960178  0.04467229  0.26471173     0.77700
Cd19       Cd  0.05148019  0.06476134  0.22882407     1.37500
O20         O  0.03954810  0.05319642  0.14141042    -0.57300
O21         O  0.05732557  0.04586283  0.27248103    -0.56100
C22         C  0.07402193  0.08856618  0.24415996     0.77600
O23         O  0.10564849  0.05340585  0.24697152    -0.58500
O24         O  0.07218451  0.06811935  0.13305545    -0.57000
O25         O  0.01564647  0.06581711  0.31432319    -0.56900
O26         O  0.04365087  0.08601204  0.22812082    -0.56100
C27         C  0.24717511  0.02245686  0.76998256     0.87000
C28         C  0.27067034  0.01630754  0.81133284    -0.53300
C29         C  0.25330793  0.00966722  0.84870652     0.09900
C30         C  0.21353739  0.01102391  0.84511361     0.20900
C31         C  0.22359204  0.01273907  0.74539213    -0.54000
C32         C  0.20587569  0.00684661  0.78542738     0.10000
C33         C  0.22317368  0.03009112  0.80687198    -0.53500
C34         C  0.20528316  0.02411335  0.84614824     0.10600
H35         H  0.29857820  0.01566881  0.80482617     0.15100
H36         H  0.19936433  0.00618480  0.87743268     0.00800
H37         H  0.22231981  0.01042714  0.70114274     0.15400
H38         H  0.21990736  0.03933106  0.80152353     0.15200
O39         O  0.44874613  0.91529979  0.88380879    -0.57300
C40         C  0.37693672  0.92184629  0.00304785     0.75300
O41         O  0.33118007  0.92708314  0.87200263    -0.58500
C42         C  0.45143055  0.91607436  0.83107739     0.75300
C43         C  0.36162313  0.89188653  0.86547828     0.77700
Cd44       Cd  0.38491112  0.91550251  0.88623664     1.37500
O45         O  0.39624682  0.92768701  0.97159508    -0.57300
O46         O  0.39246755  0.89423423  0.87958457    -0.56100
C47         C  0.34727905  0.93555594  0.85174642     0.77600
O48         O  0.34168089  0.90043176  0.85783991    -0.58500
O49         O  0.36642773  0.91223585  0.98330361    -0.57000
O50         O  0.42339954  0.91640492  0.80366830    -0.56900
O51         O  0.37898554  0.93398221  0.84005124    -0.56100
O52         O  0.48879681  0.91776477  0.75082679    -0.57300
C53         C  0.07781336  0.92128133  0.64178541     0.75300
O54         O  0.10426934  0.92677735  0.79162020    -0.58500
C55         C  0.48554325  0.91651022  0.80325423     0.75300
C56         C  0.06806595  0.89261685  0.76154840     0.77700
Cd57       Cd  0.05321717  0.91660779  0.75166525     1.37500
O58         O  0.04584969  0.92292534  0.65343975    -0.57300
O59         O  0.05100799  0.89641274  0.72089197    -0.56100
C60         C  0.08974454  0.93663009  0.79312415     0.77600
O61         O  0.07839012  0.89995446  0.79828356    -0.58500
O62         O  0.09623390  0.91671169  0.67860997    -0.57000
O63         O  0.01330847  0.91574937  0.83109992    -0.56900
O64         O  0.05765260  0.93691338  0.78219621    -0.56100
C65         C  0.19658595  0.95799061  0.35497263     0.87000
C66         C  0.21711886  0.95019354  0.31427821    -0.53300
C67         C  0.23314897  0.95602103  0.27254744     0.09900
C68         C  0.22623230  0.96922531  0.27493004     0.20900
C69         C  0.22272431  0.96730619  0.37583638    -0.54000
C70         C  0.23793555  0.97326402  0.33335409     0.10000
C71         C  0.17116424  0.96456106  0.31816457    -0.53500
C72         C  0.18649419  0.97093831  0.27771630     0.10600
H73         H  0.21995140  0.94094368  0.31976117     0.15100
H74         H  0.23907553  0.97383996  0.24036787     0.00800
H75         H  0.22651458  0.96957611  0.41973430     0.15400
H76         H  0.14380710  0.96548692  0.32878437     0.15200
C77         C  0.04012432  0.66389000  0.24643718     0.87000
C78         C  0.02144138  0.66747816  0.19286551    -0.53300
C79         C  0.00796239  0.67845352  0.19561059     0.09900
C80         C  0.01278709  0.68458790  0.25308413     0.20900
C81         C  0.06689870  0.67339026  0.25735586    -0.54000
C82         C  0.05281628  0.68429293  0.26110121     0.10000
C83         C  0.01388468  0.66564802  0.29382701    -0.53500
C84         C  0.49701171  0.67610757  0.29486840     0.10600
H85         H  0.02090678  0.66204578  0.15504376     0.15100
H86         H  0.00150803  0.69341037  0.25696101     0.00800
H87         H  0.09447460  0.67165561  0.26124548     0.15400
H88         H  0.50634688  0.65853176  0.31909303     0.15200
C89         C  0.40709746  0.66619963  0.34366292     0.87000
C90         C  0.41662383  0.67029600  0.40330414    -0.53300
C91         C  0.43350576  0.68074325  0.40624502     0.09900
C92         C  0.44056409  0.68594276  0.34855987     0.20900
C93         C  0.38662641  0.67622878  0.31967428    -0.54000
C94         C  0.40380957  0.68664567  0.32241054     0.10000
C95         C  0.44124654  0.66619040  0.31136968    -0.53500
C96         C  0.45998424  0.67619156  0.31519407     0.10600
H97         H  0.40947137  0.66551917  0.44009147     0.15100
H98         H  0.45474747  0.69429936  0.35024493     0.00800
H99         H  0.36015953  0.67526504  0.30488625     0.15400
H100        H  0.45064368  0.65858851  0.28819697     0.15200
C101        C  0.46320381  0.71675488  0.86314681     0.87000
C102        C  0.45981055  0.70961957  0.80840487    -0.53300
C103        C  0.45856270  0.71609794  0.76144839     0.09900
C104        C  0.46096889  0.72925265  0.77402178     0.20900
C105        C  0.99581585  0.72406230  0.85456231    -0.54000
C106        C  0.49449089  0.73083787  0.80829068     0.10000
C107        C  0.43251011  0.72522011  0.86267588    -0.53500
C108        C  0.43134101  0.73186434  0.81636854     0.10600
H109        H  0.45854125  0.70026776  0.80676799     0.15100
H110        H  0.46004639  0.73454351  0.73604253     0.00800
H111        H  0.01711534  0.72438047  0.88407389     0.15400
H112        H  0.41383855  0.72607914  0.89679811     0.15200
C113        C  0.27738850  0.81559962  0.86787583     0.87000
C114        C  0.26618967  0.81173532  0.92620508    -0.53300
C115        C  0.24988463  0.80123350  0.92655415     0.09900
C116        C  0.24523249  0.79566265  0.86772615     0.20900
C117        C  0.29947561  0.80557946  0.84369668    -0.54000
C118        C  0.28273025  0.79508348  0.84376924     0.10000
C119        C  0.24459762  0.81519388  0.83291678    -0.53500
C120        C  0.22663595  0.80501987  0.83417675     0.10600
H121        H  0.27186048  0.81674898  0.96417811     0.15100
H122        H  0.23133941  0.78725337  0.86716358     0.00800
H123        H  0.32617909  0.80658976  0.82979107     0.15400
H124        H  0.23525835  0.82271300  0.81117143     0.15200
C125        C  0.14248074  0.81598948  0.77662892     0.87000
C126        C  0.16053618  0.81375227  0.71964426    -0.53300
C127        C  0.17720007  0.80329316  0.71485319     0.09900
C128        C  0.17584742  0.79629692  0.76862657     0.20900
C129        C  0.11910241  0.80550241  0.78397865    -0.54000
C130        C  0.13639709  0.79515005  0.77984960     0.10000
C131        C  0.17105703  0.81464654  0.81984162    -0.53500
C132        C  0.18999005  0.80468843  0.81438462     0.10600
H133        H  0.15806904  0.81958730  0.68514868     0.15100
H134        H  0.18974988  0.78786914  0.76551472     0.00800
H135        H  0.09115742  0.80617486  0.78979606     0.15400
H136        H  0.17897884  0.82162509  0.84818886     0.15200
C137        C  0.21984917  0.76442409  0.37248105     0.87000
C138        C  0.22167723  0.77189486  0.32087974    -0.53300
C139        C  0.22550216  0.76568899  0.27157323     0.09900
C140        C  0.22695628  0.75240576  0.27915004     0.20900
C141        C  0.18999072  0.75595413  0.36083134    -0.54000
C142        C  0.19366160  0.74957955  0.31221692     0.10000
C143        C  0.25294980  0.75702188  0.36955765    -0.53500
C144        C  0.25666306  0.75056918  0.32107303     0.10600
H145        H  0.21978129  0.78126205  0.32341481     0.15100
H146        H  0.22990612  0.74725752  0.23945303     0.00800
H147        H  0.16853665  0.75479348  0.38984887     0.15400
H148        H  0.27088135  0.75655052  0.40424881     0.15200
C149        C  0.40894417  0.31640469  0.81295470     0.87000
C150        C  0.38560272  0.30624348  0.79527073    -0.53300
C151        C  0.40247744  0.29574834  0.79406347     0.09900
C152        C  0.44143489  0.29650870  0.81023450     0.20900
C153        C  0.42409990  0.31302162  0.86945679    -0.54000
C154        C  0.44055527  0.30250519  0.86866939     0.10000
C155        C  0.43896885  0.31569650  0.77166464    -0.53500
C156        C  0.45734113  0.30562643  0.77138903     0.10600
H157        H  0.35811987  0.30717910  0.78653279     0.15100
H158        H  0.45542067  0.28809359  0.80889646     0.00800
H159        H  0.42035791  0.31833193  0.90717056     0.15400
H160        H  0.44651851  0.32302350  0.74675041     0.15200
C161        C  0.04279392  0.31594127  0.70829865     0.87000
C162        C  0.06478613  0.30555166  0.72428510    -0.53300
C163        C  0.04677804  0.29533008  0.72343603     0.09900
C164        C  0.00848760  0.29635774  0.70538907     0.20900
C165        C  0.02819132  0.31262372  0.65047231    -0.54000
C166        C  0.01079849  0.30225959  0.64823939     0.10000
C167        C  0.01161899  0.31565010  0.74780453    -0.53500
C168        C  0.49281226  0.30557525  0.74609738     0.10600
H169        H  0.09220215  0.30615783  0.73440524     0.15100
H170        H  0.99410438  0.28802270  0.70412576     0.00800
H171        H  0.03281027  0.31784189  0.61418830     0.15400
H172        H  0.00386789  0.32306599  0.77393870     0.15200
C173        C  0.47382896  0.26273451  0.20092016     0.87000
C174        C  0.50653176  0.25517850  0.20466800    -0.53300
C175        C  0.00794359  0.24898746  0.25151176     0.09900
C176        C  0.47706942  0.25091674  0.29196650     0.20900
C177        C  0.44317769  0.25440526  0.20853122    -0.54000
C178        C  0.44490465  0.24816831  0.25607256     0.10000
C179        C  0.47410182  0.27032528  0.25478046    -0.53500
C180        C  0.47576061  0.26417409  0.30280987     0.10600
H181        H  0.02550303  0.25466488  0.17087884     0.15100
H182        H  0.47851462  0.24577237  0.33034079     0.00800
H183        H  0.42259188  0.25330727  0.17802323     0.15400
H184        H  0.47318969  0.27972282  0.25494302     0.15200
C185        C  0.16116922  0.16457059  0.23950151     0.87000
C186        C  0.13812589  0.17480182  0.25800048    -0.53300
C187        C  0.15506918  0.18528335  0.25846588     0.09900
C188        C  0.19376671  0.18444706  0.24015123     0.20900
C189        C  0.17577532  0.16785340  0.18222481    -0.54000
C190        C  0.19224187  0.17835399  0.18200947     0.10000
C191        C  0.19171935  0.16530117  0.27921740    -0.53500
C192        C  0.21030914  0.17536269  0.27820354     0.10600
H193        H  0.11072616  0.17388383  0.26787307     0.15100
H194        H  0.20759846  0.19288196  0.24043562     0.00800
H195        H  0.17171051  0.16250033  0.14482585     0.15400
H196        H  0.19884894  0.15805237  0.30474949     0.15200
C197        C  0.28934827  0.16548777  0.35705541     0.87000
C198        C  0.31513991  0.17485297  0.34155928    -0.53300
C199        C  0.30013248  0.18547199  0.33395995     0.09900
C200        C  0.26001930  0.18562938  0.34306017     0.20900
C201        C  0.27033983  0.17034435  0.40904125    -0.54000
C202        C  0.25543375  0.18093974  0.40247413     0.10000
C203        C  0.26287047  0.16553473  0.31033243    -0.53500
C204        C  0.24551441  0.17576820  0.30454252     0.10600
H205        H  0.34281730  0.17322972  0.33724730     0.15100
H206        H  0.24764447  0.19418995  0.33714811     0.00800
H207        H  0.26978866  0.16588581  0.44842704     0.15400
H208        H  0.25628975  0.15765038  0.28686723     0.15200
C209        C  0.22077092  0.21856611  0.85031494     0.87000
C210        C  0.25371725  0.22591955  0.84367331    -0.53300
C211        C  0.25447367  0.23210360  0.79595062     0.09900
C212        C  0.22274896  0.22999524  0.75822688     0.20900
C213        C  0.19031753  0.22710882  0.84436732    -0.54000
C214        C  0.19132749  0.23311194  0.79591782     0.10000
C215        C  0.21942166  0.21081706  0.79709302    -0.53500
C216        C  0.22033102  0.21680587  0.74860915     0.10600
H217        H  0.27360573  0.22670040  0.87556287     0.15100
H218        H  0.22425055  0.23466728  0.71858234     0.00800
H219        H  0.17005165  0.22833112  0.87578265     0.15400
H220        H  0.21772064  0.20145504  0.79798730     0.15200
O221        O  0.24634376  0.41772088  0.80906598    -0.57300
C222        C  0.32059705  0.42274160  0.92959296     0.75300
O223        O  0.35056000  0.40106297  0.78386828    -0.58500
C224        C  0.24421552  0.41714576  0.75605008     0.75300
C225        C  0.35005258  0.43631317  0.77515320     0.77700
Cd226      Cd  0.31023908  0.41689507  0.81245579     1.37500
O227        O  0.29989930  0.42855569  0.90056353    -0.57300
O228        O  0.31754371  0.43567185  0.76924229    -0.56100
C229        C  0.32988660  0.39295845  0.79609354     0.77600
O230        O  0.36529310  0.42725578  0.79069079    -0.58500
O231        O  0.33200416  0.41346027  0.90729729    -0.57000
O232        O  0.27257629  0.41655286  0.72889203    -0.56900
O233        O  0.29978216  0.39589292  0.81256210    -0.56100
O234        O  0.13915332  0.41807567  0.57379647    -0.57300
C235        C  0.21030585  0.41699397  0.72781860     0.75300
O236        O  0.11038617  0.43019979  0.73615364    -0.58500
C237        C  0.10619322  0.41928203  0.57581741     0.75300
C238        C  0.12252482  0.39244058  0.69441815     0.77700
Cd239      Cd  0.14263562  0.41597821  0.67720740     1.37500
O240        O  0.20739677  0.41633534  0.67479219    -0.57300
O241        O  0.14425346  0.39516176  0.65703409    -0.56100
C242        C  0.11812066  0.43860188  0.70499866     0.77600
O243        O  0.11007702  0.40064317  0.72505757    -0.58500
O244        O  0.18239548  0.41736692  0.75610897    -0.57000
O245        O  0.09135519  0.41785096  0.62251412    -0.56900
O246        O  0.13891563  0.43658206  0.66468149    -0.56100
C247        C  0.49142118  0.45687673  0.29096957     0.87000
C248        C  0.01708547  0.46495719  0.26450397    -0.53300
C249        C  0.00411636  0.47157913  0.22332070     0.09900
C250        C  0.46629795  0.46884500  0.21011639     0.20900
C251        C  0.46049186  0.46482420  0.30906187    -0.54000
C252        C  0.44748541  0.47122121  0.26614625     0.10000
C253        C  0.47774277  0.44943432  0.24241275    -0.53500
C254        C  0.46368915  0.45560012  0.20051483     0.10600
H255        H  0.04262233  0.46640012  0.28249477     0.15100
H256        H  0.45664134  0.47362906  0.17398606     0.00800
H257        H  0.45121972  0.46576608  0.35190630     0.15400
H258        H  0.47654143  0.44005629  0.24388370     0.15200
O259        O  0.24650300  0.56429761  0.34518368    -0.57300
C260        C  0.33827816  0.56197290  0.45684848     0.75300
O261        O  0.34584414  0.55114339  0.28844848    -0.58500
C262        C  0.24506366  0.56439408  0.29206691     0.75300
C263        C  0.33004256  0.58906042  0.33910019     0.77700
Cd264      Cd  0.31087678  0.56512505  0.34825218     1.37500
O265        O  0.30552088  0.56150939  0.44961823    -0.57300
O266        O  0.30557167  0.58589186  0.37080755    -0.56100
C267        C  0.33777264  0.54259470  0.31840051     0.77600
O268        O  0.34557064  0.58115775  0.31033755    -0.58500
O269        O  0.35686871  0.56486267  0.41568750    -0.57000
O270        O  0.27368869  0.56474070  0.26582461    -0.56900
O271        O  0.31681196  0.54454159  0.35844974    -0.56100
O272        O  0.21081784  0.56451955  0.20881443    -0.57300
C273        C  0.13850426  0.55819443  0.08529054     0.75300
O274        O  0.09192935  0.55345591  0.21972850    -0.58500
C275        C  0.21190537  0.56420352  0.26181103     0.75300
C276        C  0.12217975  0.58732801  0.22636400     0.77700
Cd277      Cd  0.14671501  0.56412717  0.20268277     1.37500
O278        O  0.15586348  0.55183669  0.11691076    -0.57300
O279        O  0.15154146  0.58522310  0.20425252    -0.56100
C280        C  0.10735311  0.54436728  0.23451656     0.77600
O281        O  0.10387350  0.57865837  0.23913869    -0.58500
O282        O  0.13023849  0.56808766  0.10503087    -0.57000
O283        O  0.18306086  0.56378631  0.28737911    -0.56900
O284        O  0.13978093  0.54507136  0.24165773    -0.56100
C285        C  0.45791647  0.52404549  0.73530656     0.87000
C286        C  0.47868310  0.53110140  0.77837336    -0.53300
C287        C  0.49483246  0.52452664  0.81689751     0.09900
C288        C  0.48761887  0.51139469  0.80932795     0.20900
C289        C  0.48399990  0.51505427  0.70995120    -0.54000
C290        C  0.49956183  0.50842454  0.74942754     0.10000
C291        C  0.43255729  0.51690570  0.76991939    -0.53500
C292        C  0.44792035  0.50967752  0.80639393     0.10600
H293        H  0.48169795  0.54043754  0.77679921     0.15100
H294        H  0.49990497  0.50616282  0.84191567     0.00800
H295        H  0.48849097  0.51380063  0.66534049     0.15400
H296        H  0.40523904  0.51615977  0.75932242     0.15200
C297        C  0.04889347  0.54247017  0.90034163     0.30300
C298        C  0.06126476  0.55291862  0.92417722    -0.36100
C299        C  0.08843915  0.55197577  0.96266424     0.16200
C300        C  0.10265214  0.54147297  0.97648181     0.22100
C301        C  0.09053417  0.53103181  0.95209629    -0.34200
C302        C  0.06307603  0.53197107  0.91410922     0.16100
O303        O  0.52364020  0.54106461  0.86476255    -0.26200
C304        C  0.01994956  0.52991323  0.85635431     0.05900
C305        C  0.04445163  0.52367051  0.88581652    -0.31100
O306        O  0.12483656  0.54247194  0.01820699    -0.22900
C307        C  0.12496715  0.55375997  0.03133371    -0.02900
C308        C  0.10299944  0.56010074  0.99771834    -0.17400
H309        H  0.04960750  0.56117057  0.91499002     0.20600
H310        H  0.10071977  0.52271985  0.96386520     0.19000
H311        H  0.04839695  0.51439928  0.88602373     0.18900
H312        H  0.09603879  0.56916056  0.00234384     0.14800
C313        C  0.39557334  0.55309431  0.55942682     0.30300
C314        C  0.42845786  0.55028865  0.58027719    -0.36100
C315        C  0.42873187  0.54292761  0.62585048     0.16200
C316        C  0.39866449  0.53866611  0.64916814     0.22100
C317        C  0.36578854  0.54157183  0.62878941    -0.34200
C318        C  0.36549781  0.54893164  0.58325891     0.16100
O319        O  0.38949172  0.55888246  0.51390264    -0.26200
C320        C  0.35510406  0.55851515  0.50864025     0.05900
C321        C  0.33871965  0.55250855  0.55088501    -0.31100
O322        O  0.40487890  0.53157563  0.68992715    -0.22900
C323        C  0.43940000  0.53125720  0.69313459    -0.02900
C324        C  0.45566388  0.53820477  0.65426988    -0.17400
H325        H  0.45217884  0.55331737  0.56109107     0.20600
H326        H  0.34214943  0.53805667  0.64618230     0.19000
H327        H  0.31150655  0.55028380  0.55450174     0.18900
H328        H  0.48322652  0.53944159  0.64759400     0.14800
C329        C  0.05708281  0.49616941  0.22536194     0.30300
C330        C  0.08620732  0.50257877  0.24223626    -0.36100
C331        C  0.08316569  0.51461345  0.23954960     0.21000
C332        C  0.05364663  0.52004369  0.22096107     0.22100
C333        C  0.02442154  0.51359669  0.20372914    -0.34200
C334        C  0.02742648  0.50148987  0.20668271     0.16100
O335        O  0.05349451  0.48490125  0.22917992    -0.26200
C336        C  0.02111771  0.48282632  0.21256250     0.05900
C337        C  0.00375980  0.49285685  0.19734356    -0.31100
O338        O  0.05727385  0.53141392  0.21992124    -0.22900
C339        C  0.08942994  0.53321583  0.23852458    -0.02900
C340        C  0.10661420  0.52307155  0.25151816    -0.17400
H341        H  0.10945590  0.49846320  0.25737828     0.20600
H342        H  0.00095355  0.51771964  0.18949334     0.19000
H343        H  0.97689521  0.49382961  0.18560255     0.18900
H344        H  0.13325287  0.52203637  0.26472866     0.14800
C345        C  0.39652803  0.49507807  0.31151838     0.30300
C346        C  0.38340729  0.50337876  0.35016899    -0.36100
C347        C  0.37101655  0.51369227  0.32763408     0.16200
C348        C  0.37184709  0.51580783  0.27110215     0.22100
C349        C  0.38393396  0.50736911  0.23242833    -0.34200
C350        C  0.39584276  0.49701165  0.25492944     0.16100
O351        O  0.41283241  0.48536299  0.32334377    -0.26200
C352        C  0.42240866  0.48095841  0.27347621     0.05900
C353        C  0.41157918  0.48776607  0.22955506    -0.31100
O354        O  0.36087011  0.52632694  0.25961689    -0.22900
C355        C  0.35232377  0.53090935  0.30947892    -0.02900
C356        C  0.35789967  0.52342618  0.35312124    -0.17400
H357        H  0.38391139  0.50206748  0.39477216     0.20600
H358        H  0.38500656  0.50889843  0.18801815     0.19000
H359        H  0.41643378  0.48665801  0.18520516     0.18900
H360        H  0.35354542  0.52505178  0.39741917     0.14800
C361        C  0.04863624  0.48324229  0.75678797     0.30300
C362        C  0.06085583  0.47353312  0.78424014    -0.36100
C363        C  0.07726454  0.46509013  0.75053088     0.16200
C364        C  0.08197459  0.46621913  0.69369691     0.22100
C365        C  0.06940878  0.47595141  0.66597176    -0.34200
C366        C  0.05237102  0.48436072  0.69980492     0.16100
O367        O  0.03112311  0.49180845  0.78040496    -0.26200
C368        C  0.02295743  0.49855816  0.73844378     0.05900
C369        C  0.03556595  0.49438888  0.68690270    -0.31100
O370        O  0.09778730  0.45714722  0.67048605    -0.22900
C371        C  0.10276312  0.45012993  0.71299577    -0.02900
C372        C  0.09034322  0.45458065  0.76370880    -0.17400
H373        H  0.05705996  0.47251837  0.82870644     0.20600
H374        H  0.07210168  0.47678320  0.62120878     0.19000
H375        H  0.03199827  0.49797646  0.64605103     0.18900
H376        H  0.09068980  0.45061322  0.80415796     0.14800
C377        C  0.01690842  0.44165619  0.41041548     0.30300
C378        C  0.01582263  0.43810859  0.46596865    -0.36100
C379        C  0.04435732  0.43159683  0.48352865     0.16200
C380        C  0.07236743  0.42886163  0.44925383     0.22100
C381        C  0.07297748  0.43212438  0.39323081    -0.34200
C382        C  0.04424850  0.43852102  0.37550866     0.16100
O383        O  0.99414756  0.44843392  0.38612866    -0.26200
C384        C  0.00695350  0.44953287  0.33473975     0.05900
C385        C  0.03778984  0.44340695  0.32575115    -0.31100
O386        O  0.09778325  0.42373900  0.47615665    -0.22900
C387        C  0.08550664  0.42300542  0.52806321    -0.02900
C388        C  0.05233500  0.42766950  0.53479888    -0.17400
H389        H  0.99477593  0.44057412  0.49410576     0.20600
H390        H  0.09484138  0.43016107  0.36587498     0.19000
H391        H  0.05377696  0.44301170  0.28832929     0.18900
H392        H  0.03727729  0.42872500  0.57300736     0.14800
C393        C  0.40254079  0.46077629  0.79225626     0.30300
C394        C  0.43013565  0.46733244  0.81487361    -0.36100
C395        C  0.42619227  0.47943211  0.81434739     0.16200
C396        C  0.39716630  0.48465655  0.79293333     0.22100
C397        C  0.36972532  0.47813966  0.77026545    -0.34200
C398        C  0.37369943  0.46609672  0.77060396     0.16100
O399        O  0.39939510  0.44938475  0.79226874    -0.26200
C400        C  0.36821304  0.44742353  0.77006473     0.05900
C401        C  0.35128663  0.45751648  0.75530565    -0.31100
O402        O  0.39984171  0.49599845  0.79265871    -0.22900
C403        C  0.43110802  0.49822376  0.81395128    -0.02900
C404        C  0.44845103  0.48818383  0.82913297    -0.17400
H405        H  0.45299524  0.46328966  0.83184155     0.20600
H406        H  0.34691295  0.48219218  0.75320078     0.19000
H407        H  0.32502362  0.45845244  0.74017161     0.18900
H408        H  0.47467998  0.48731904  0.84435041     0.14800
C409        C  0.37067500  0.42877848  0.04766928     0.30300
C410        C  0.39921928  0.42700672  0.08263746    -0.36100
C411        C  0.41238725  0.43690588  0.11042053     0.16200
C412        C  0.39831634  0.44779058  0.10474729     0.22100
C413        C  0.36928403  0.44952246  0.07074590    -0.34200
C414        C  0.35616221  0.43962982  0.04267659     0.16100
O415        O  0.35757482  0.42110098  0.01178514    -0.26200
C416        C  0.33408853  0.42705131  0.98372205     0.05900
C417        C  0.33176361  0.43859389  0.00178005    -0.31100
O418        O  0.41533774  0.45586007  0.13357289    -0.22900
C419        C  0.44065832  0.45007217  0.15817562    -0.02900
C420        C  0.44006953  0.43823154  0.14503281    -0.17400
H421        H  0.41131458  0.41859762  0.08592846     0.20600
H422        H  0.35848840  0.45805303  0.06493937     0.19000
H423        H  0.31727249  0.44549711  0.98301023     0.18900
H424        H  0.45721068  0.43152477  0.15935624     0.14800
C425        C  0.22324867  0.18988528  0.53373024     0.30300
C426        C  0.21626647  0.18824383  0.59049926    -0.36100
C427        C  0.21564548  0.19825438  0.62484900     0.16200
C428        C  0.22098336  0.20918604  0.60476900     0.22100
C429        C  0.22702438  0.21086875  0.54745446    -0.34200
C430        C  0.22810230  0.20079747  0.51297943     0.16100
O431        O  0.23007310  0.18160156  0.49643037    -0.26200
C432        C  0.23921532  0.18718146  0.45075115     0.05900
C433        C  0.23804403  0.19918103  0.45826682    -0.31100
O434        O  0.22257914  0.21717133  0.64534351    -0.22900
C435        C  0.21836535  0.21125469  0.69196858    -0.02900
C436        C  0.21362277  0.19944371  0.68146929    -0.17400
H437        H  0.21378600  0.17968878  0.60729846     0.20600
H438        H  0.23257676  0.21934006  0.53147279     0.19000
H439        H  0.24661035  0.20568558  0.42959867     0.18900
H440        H  0.21057408  0.19260797  0.71104055     0.14800
C441        C  0.21585786  0.19841663  0.95943284     0.30300
C442        C  0.21082556  0.18755885  0.98302166    -0.36100
C443        C  0.21024873  0.18742443  0.04164865     0.16200
C444        C  0.21461565  0.19726362  0.07490960     0.22100
C445        C  0.21998912  0.20811722  0.05128601    -0.34200
C446        C  0.22016816  0.20827646  0.99260162     0.16100
O447        O  0.21571463  0.20060309  0.90562008    -0.26200
C448        C  0.21981815  0.21203827  0.90409994     0.05900
C449        C  0.22270251  0.21725830  0.95709406    -0.31100
O450        O  0.21054824  0.19526471  0.12862903    -0.22900
C451        C  0.20336886  0.18399661  0.12991100    -0.02900
C452        C  0.20316392  0.17867466  0.07682758    -0.17400
H453        H  0.20655456  0.17981285  0.95744751     0.20600
H454        H  0.22260927  0.21594815  0.07685707     0.19000
H455        H  0.22582006  0.22637044  0.96770166     0.18900
H456        H  0.19700646  0.16979266  0.06527404     0.14800
C457        C  0.33855676  0.21175245  0.29385562     0.30300
C458        C  0.34142969  0.22246925  0.26757448    -0.36100
C459        C  0.37382287  0.22806949  0.27233096     0.16200
C460        C  0.40119186  0.22350145  0.30151834     0.22100
C461        C  0.39842731  0.21281167  0.32718010    -0.34200
C462        C  0.36639971  0.20718885  0.32183502     0.16100
O463        O  0.31098777  0.20489085  0.29470513    -0.26200
C464        C  0.32171922  0.19579305  0.32306276     0.05900
C465        C  0.35594995  0.19682166  0.34082204    -0.31100
O466        O  0.42912781  0.23006488  0.30063487    -0.22900
C467        C  0.41993162  0.23894627  0.26990662    -0.02900
C468        C  0.38574883  0.23818173  0.25107167    -0.17400
H469        H  0.32010669  0.22612440  0.24466494     0.20600
H470        H  0.41991553  0.20907591  0.34938192     0.19000
H471        H  0.37101180  0.19082169  0.36477204     0.18900
H472        H  0.37183601  0.24415007  0.22526858     0.14800
C473        C  0.11910990  0.21329079  0.25659224     0.30300
C474        C  0.11343801  0.22429896  0.23470205    -0.36100
C475        C  0.08240403  0.22988423  0.25126031     0.16200
C476        C  0.05890837  0.22508543  0.28771831     0.22100
C477        C  0.06477959  0.21416679  0.31009053    -0.34200
C478        C  0.09540330  0.20849370  0.29271247     0.16100
O479        O  0.14436841  0.20600949  0.24214170    -0.26200
C480        C  0.13653338  0.19639483  0.26900739     0.05900
C481        C  0.10645145  0.19750402  0.30134585    -0.31100
O482        O  0.03044011  0.23137136  0.29425874    -0.22900
C483        C  0.03549203  0.24030032  0.26123084    -0.02900
C484        C  0.06752732  0.23984635  0.23364414    -0.17400
H485        H  0.13105961  0.22798090  0.20459500     0.20600
H486        H  0.04589038  0.21011202  0.33690731     0.19000
H487        H  0.09353164  0.19095095  0.32533664     0.18900
H488        H  0.07781911  0.24573702  0.20332372     0.14800
C489        C  0.10283295  0.27170619  0.72333051     0.30300
C490        C  0.13228878  0.26546674  0.70643011    -0.36100
C491        C  0.14108877  0.25615180  0.73934241     0.16200
C492        C  0.12244152  0.25309888  0.78604406     0.22100
C493        C  0.09226082  0.25924195  0.80251757    -0.34200
C494        C  0.08323029  0.26861890  0.76913967     0.16100
O495        O  0.09188413  0.28125551  0.70078622    -0.26200
C496        C  0.06447739  0.28429108  0.73164821     0.05900
C497        C  0.05750720  0.27675383  0.77469421    -0.31100
O498        O  0.13717553  0.24446451  0.81230098    -0.22900
C499        C  0.16542258  0.24200396  0.78149692    -0.02900
C500        C  0.16883700  0.24900938  0.73553170    -0.17400
H501        H  0.14798117  0.26795119  0.67102739     0.20600
H502        H  0.07752197  0.25709109  0.83945693     0.19000
H503        H  0.03776377  0.27755377  0.80700314     0.18900
H504        H  0.18920345  0.24922093  0.70431103     0.14800
C505        C  0.48225022  0.28320676  0.42006855     0.30300
C506        C  0.48823039  0.29387483  0.44780616    -0.36100
C507        C  0.48996312  0.29366193  0.50630823     0.16200
C508        C  0.98593109  0.28377564  0.53534314     0.22100
C509        C  0.97932603  0.27309406  0.50756962    -0.34200
C510        C  0.97795042  0.27327498  0.44878020     0.16100
O511        O  0.48153765  0.28137742  0.36541368    -0.26200
C512        C  0.47691731  0.26999264  0.35901929     0.05900
C513        C  0.97422982  0.26454221  0.40947876    -0.31100
O514        O  0.99109467  0.28550127  0.58960764    -0.22900
C515        C  0.99888585  0.29673301  0.59476522    -0.02900
C516        C  0.49804285  0.30219178  0.54434024    -0.17400
H517        H  0.49239965  0.30174010  0.42520690     0.20600
H518        H  0.97667667  0.26514181  0.53004596     0.19000
H519        H  0.97070567  0.25542034  0.41677503     0.18900
H520        H  0.50413372  0.31110821  0.53579829     0.14800
C521        C  0.10915993  0.36237894  0.68619069     0.30300
C522        C  0.11318721  0.35099750  0.66439003    -0.36100
C523        C  0.09189138  0.34254562  0.68818670     0.16200
C524        C  0.06835373  0.34519267  0.73034676     0.22100
C525        C  0.06452593  0.35650838  0.75237635    -0.34200
C526        C  0.08572006  0.36492479  0.72868104     0.16100
O527        O  0.12541604  0.37169185  0.66895493    -0.26200
C528        C  0.11225984  0.38028241  0.70094696     0.05900
C529        C  0.08745589  0.37657757  0.73891245    -0.31100
O530        O  0.04946348  0.33623169  0.74407556    -0.22900
C531        C  0.06078255  0.32760923  0.71053064    -0.02900
C532        C  0.08757576  0.33101741  0.67509115    -0.17400
H533        H  0.13107876  0.34893422  0.63046483     0.20600
H534        H  0.04566749  0.35864563  0.78482454     0.19000
H535        H  0.07246287  0.38174474  0.76886562     0.18900
H536        H  0.10051222  0.32591148  0.64250560     0.14800
C537        C  0.34222064  0.27363176  0.76524405     0.30300
C538        C  0.31024405  0.26905581  0.74759934    -0.36100
C539        C  0.30287191  0.25775123  0.76391113     0.16200
C540        C  0.32517492  0.25141591  0.79604443     0.22100
C541        C  0.35750344  0.25592019  0.81282981    -0.34200
C542        C  0.36509744  0.26719429  0.79589259     0.16100
O543        O  0.35296789  0.28434114  0.75866883    -0.26200
C544        C  0.38341795  0.28476521  0.78467190     0.05900
C545        C  0.39244277  0.27430647  0.80826289    -0.31100
O546        O  0.31167896  0.24141120  0.81042536    -0.22900
C547        C  0.28057085  0.24125385  0.78631457    -0.02900
C548        C  0.27381184  0.25119583  0.75670344    -0.17400
H549        H  0.29188764  0.27409981  0.72437259     0.20600
H550        H  0.37499229  0.25112533  0.83879973     0.19000
H551        H  0.41459795  0.27246383  0.83417178     0.18900
H552        H  0.25016871  0.25357970  0.73574838     0.14800
C553        C  0.46352677  0.28357584  0.97544498     0.30300
C554        C  0.46917378  0.27276690  0.99940240    -0.36100
C555        C  0.47037684  0.27275234  0.05814631     0.16200
C556        C  0.46671430  0.28269081  0.09108544     0.22100
C557        C  0.46130224  0.29348669  0.06713082    -0.34200
C558        C  0.45978153  0.29348441  0.00850952     0.16100
O559        O  0.45889711  0.28550185  0.92177032    -0.26200
C560        C  0.45199918  0.29680317  0.92038289     0.05900
C561        C  0.45251787  0.30219029  0.97331824    -0.31100
O562        O  0.46772657  0.28065133  0.14510877    -0.22900
C563        C  0.47195265  0.26922579  0.14700581    -0.02900
C564        C  0.47368379  0.26387626  0.09404520    -0.17400
H565        H  0.47141375  0.26487385  0.97411972     0.20600
H566        H  0.45760969  0.30130682  0.09250071     0.19000
H567        H  0.44686008  0.31112080  0.98486894     0.18900
H568        H  0.47660312  0.25473917  0.08374396     0.14800
C569        C  0.36089577  0.34267248  0.80524959     0.30300
C570        C  0.33239251  0.34999730  0.79592708    -0.36100
C571        C  0.33958369  0.36195922  0.79626333     0.16200
C572        C  0.37259435  0.36635431  0.80417287     0.22100
C573        C  0.40074511  0.35909514  0.81466198    -0.34200
C574        C  0.39342523  0.34724153  0.81547996     0.16100
O575        O  0.36089375  0.33118575  0.80423114    -0.26200
C576        C  0.39383329  0.32847988  0.81483086     0.05900
C577        C  0.41485805  0.33816550  0.82319130    -0.31100
O578        O  0.37368791  0.37774031  0.80262121    -0.22900
C579        C  0.34088037  0.38076988  0.79432987    -0.02900
C580        C  0.31840352  0.37132857  0.79034969    -0.17400
H581        H  0.30655097  0.34662657  0.78865402     0.20600
H582        H  0.42662340  0.36245985  0.82173031     0.19000
H583        H  0.44255300  0.33840516  0.83072954     0.18900
H584        H  0.29051950  0.37139507  0.78489118     0.14800
C585        C  0.20166097  0.78511564  0.60171102     0.30300
C586        C  0.20816458  0.77439555  0.57487399    -0.36100
C587        C  0.21069600  0.77447588  0.51650985     0.16200
C588        C  0.20738719  0.78441991  0.48635196     0.22100
C589        C  0.20076006  0.79517867  0.51326756    -0.34200
C590        C  0.19800984  0.79508498  0.57185717     0.16100
O591        O  0.19648245  0.78686232  0.65572617    -0.26200
C592        C  0.18932576  0.79810194  0.66096990     0.05900
C593        C  0.19004432  0.80368744  0.61001270    -0.31100
O594        O  0.21039573  0.78239269  0.43192138    -0.22900
C595        C  0.21553804  0.77098981  0.42738812    -0.02900
C596        C  0.21577757  0.76564419  0.47871182    -0.17400
H597        H  0.21040987  0.76649814  0.59785587     0.20600
H598        H  0.19743316  0.80301716  0.49016303     0.19000
H599        H  0.18414677  0.81263205  0.60175252     0.18900
H600        H  0.21912466  0.75653844  0.48673972     0.14800
C601        C  0.23770129  0.79310948  0.06569681     0.30300
C602        C  0.23908107  0.79461706  0.12395912    -0.36100
C603        C  0.23363363  0.78465658  0.15489589     0.16200
C604        C  0.22735933  0.77390266  0.13051055     0.22100
C605        C  0.22560161  0.77241879  0.07202010    -0.34200
C606        C  0.23091255  0.78242566  0.04092170     0.16100
O607        O  0.24399582  0.80112952  0.02893066    -0.26200
C608        C  0.24100574  0.79558795  0.97963409     0.05900
C609        C  0.23256265  0.78392469  0.98458590    -0.31100
O610        O  0.22391353  0.76574193  0.16786067    -0.22900
C611        C  0.22780625  0.77138943  0.21680203    -0.02900
C612        C  0.23397003  0.78318748  0.21095142    -0.17400
H613        H  0.24465598  0.80294642  0.14379651     0.20600
H614        H  0.22096768  0.76403207  0.05213424     0.19000
H615        H  0.22957753  0.77735783  0.95186424     0.18900
H616        H  0.23856211  0.78977506  0.24311583     0.14800
C617        C  0.04259955  0.75468706  0.76590766     0.30300
C618        C  0.04649678  0.76565356  0.74332013    -0.36100
C619        C  0.07684522  0.77163925  0.75795069     0.16200
C620        C  0.10227853  0.76708640  0.79134097     0.22100
C621        C  0.09857722  0.75600781  0.81344206    -0.34200
C622        C  0.06768734  0.75011108  0.79986033     0.16100
O623        O  0.01455590  0.74819069  0.76238466    -0.26200
C624        C  0.02144221  0.73934449  0.79483830     0.05900
C625        C  0.05431662  0.74003562  0.81894855    -0.31100
O626        O  0.12745087  0.77457677  0.80243156    -0.22900
C627        C  0.11751684  0.78405593  0.77646159    -0.02900
C628        C  0.08639080  0.78268328  0.74796397    -0.17400
H629        H  0.02637483  0.76951145  0.71851025     0.20600
H630        H  0.11756272  0.75248619  0.84149423     0.19000
H631        H  0.06603417  0.73428467  0.84837310     0.18900
H632        H  0.07234167  0.78904618  0.72458649     0.14800
C633        C  0.36036871  0.75095579  0.82748231     0.30300
C634        C  0.32951741  0.75542398  0.85107460    -0.36100
C635        C  0.32013349  0.76658127  0.83515923     0.16200
C636        C  0.33992082  0.77296104  0.79891644     0.22100
C637        C  0.37030484  0.76835934  0.77410325    -0.34200
C638        C  0.37960249  0.75715548  0.78977241     0.16100
O639        O  0.37552786  0.74117288  0.84052382    -0.26200
C640        C  0.40469740  0.74098263  0.81029649     0.05900
C641        C  0.40850346  0.75068524  0.77757229    -0.31100
O642        O  0.32859382  0.78369645  0.79520565    -0.22900
C643        C  0.30086182  0.78413891  0.82878023    -0.02900
C644        C  0.29418615  0.77369473  0.85427216    -0.17400
H645        H  0.31470405  0.75073747  0.88168122     0.20600
H646        H  0.38645290  0.77337554  0.74661465     0.19000
H647        H  0.43032333  0.75299262  0.75142255     0.18900
H648        H  0.27483962  0.77186940  0.88575728     0.14800
C649        C  0.36699161  0.71453525  0.32489822     0.30300
C650        C  0.35990292  0.72561269  0.34803901    -0.36100
C651        C  0.33009416  0.73115204  0.32815841     0.16200
C652        C  0.30884923  0.72622020  0.28783714     0.22100
C653        C  0.31606319  0.71517843  0.26443781    -0.34200
C654        C  0.34565084  0.70958491  0.28474033     0.16100
O655        O  0.39159144  0.70738616  0.34099968    -0.26200
C656        C  0.38586216  0.69769103  0.31097233     0.05900
C657        C  0.35768531  0.69861531  0.27506602    -0.31100
O658        O  0.28109434  0.73259367  0.27820834    -0.22900
C659        C  0.28444288  0.74172845  0.31301680    -0.02900
C660        C  0.31461469  0.74128679  0.34489695    -0.17400
H661        H  0.37568283  0.72943993  0.38096253     0.20600
H662        H  0.29897512  0.71102849  0.23421835     0.19000
H663        H  0.34647632  0.69195600  0.24802887     0.18900
H664        H  0.32330066  0.74731314  0.37730751     0.14800
C665        C  0.44261442  0.68935327  0.54729564     0.30300
C666        C  0.43967981  0.68797534  0.60498905    -0.36100
C667        C  0.44662453  0.69779203  0.63856664     0.16200
C668        C  0.45584989  0.70833612  0.61737852     0.22100
C669        C  0.45890252  0.70972880  0.55917804    -0.34200
C670        C  0.45196410  0.69981950  0.52525712     0.16100
O671        O  0.43597517  0.68133973  0.50866860    -0.26200
C672        C  0.44117984  0.68661797  0.46069814     0.05900
C673        C  0.45131934  0.69816246  0.46839867    -0.31100
O674        O  0.46096094  0.71632564  0.65737118    -0.22900
C675        C  0.45504764  0.71072538  0.70456212    -0.02900
C676        C  0.44585924  0.69918993  0.69490697    -0.17400
H677        H  0.43215090  0.67980878  0.62253752     0.20600
H678        H  0.46590936  0.71794146  0.54161269     0.19000
H679        H  0.45619480  0.70453474  0.43703418     0.18900
H680        H  0.43932101  0.69267662  0.72479699     0.14800
C681        C  0.34158913  0.61921299  0.35444831     0.30300
C682        C  0.33580958  0.63052280  0.37655209    -0.36100
C683        C  0.35828580  0.63918040  0.35719672     0.16200
C684        C  0.38447161  0.63674512  0.31906492     0.22100
C685        C  0.39010235  0.62554323  0.29693299    -0.34200
C686        C  0.36778536  0.61696188  0.31602776     0.16100
O687        O  0.32450129  0.60972025  0.36738777    -0.26200
C688        C  0.34002727  0.60135349  0.33666876     0.05900
C689        C  0.36710483  0.60538085  0.30395734    -0.31100
O690        O  0.40361474  0.64581931  0.30854604    -0.22900
C691        C  0.38990489  0.65437329  0.33998968    -0.02900
C692        C  0.36121455  0.65076446  0.37101847    -0.17400
H693        H  0.31563581  0.63239344  0.40721391     0.20600
H694        H  0.41095045  0.62361914  0.26751786     0.19000
H695        H  0.38414948  0.60045605  0.27603029     0.18900
H696        H  0.34592000  0.65579450  0.40106775     0.14800
C697        C  0.15256330  0.72355411  0.27197582     0.30300
C698        C  0.15108954  0.71190513  0.25389610    -0.36100
C699        C  0.11904323  0.70634378  0.26106499     0.16200
C700        C  0.09013675  0.71186980  0.28347065     0.22100
C701        C  0.09163260  0.72352375  0.30171469    -0.34200
C702        C  0.12387783  0.72904194  0.29541549     0.16100
O703        O  0.18043596  0.73020956  0.27225856    -0.26200
C704        C  0.16959190  0.74006439  0.29673019     0.05900
C705        C  0.13459148  0.73983050  0.31187757    -0.31100
O706        O  0.06289418  0.70494535  0.28639358    -0.22900
C707        C  0.07469861  0.69480481  0.26632256    -0.02900
C708        C  0.10947407  0.69520345  0.24991479    -0.17400
H709        H  0.17358159  0.70741034  0.23668155     0.20600
H710        H  0.06944623  0.72790860  0.32059511     0.19000
H711        H  0.11955265  0.74650324  0.33359548     0.18900
H712        H  0.12538410  0.68832375  0.23177425     0.14800
C713        C  0.48262444  0.68720018  0.06149189     0.30300
C714        C  0.47832080  0.68594192  0.00343656    -0.36100
C715        C  0.47187106  0.69616235  0.97495332     0.16200
C716        C  0.97074174  0.70672450  0.00151512     0.22100
C717        C  0.97480797  0.70799578  0.05962427    -0.34200
C718        C  0.98119442  0.69778414  0.08824430     0.16100
O719        O  0.49117942  0.67893340  0.09573244    -0.26200
C720        C  0.99488421  0.68427492  0.14549321     0.05900
C721        C  0.98829835  0.69611321  0.14308139    -0.31100
O722        O  0.96660908  0.71517164  0.96623041    -0.22900
C723        C  0.46507538  0.71000243  0.91628731    -0.02900
C724        C  0.46852384  0.69800392  0.91935532    -0.17400
H725        H  0.48084572  0.67762038  0.98176054     0.20600
H726        H  0.97400741  0.71640228  0.08084918     0.19000
H727        H  0.99017225  0.70269251  0.17602853     0.18900
H728        H  0.47001685  0.69152073  0.88593865     0.14800
C729        C  0.08699020  0.63730366  0.24102205     0.30300
C730        C  0.11626729  0.63004998  0.23882192    -0.36100
C731        C  0.10965389  0.61809644  0.23879026     0.16200
C732        C  0.07655778  0.61354784  0.24166860     0.22100
C733        C  0.04725442  0.62079587  0.24330657    -0.34200
C734        C  0.05387815  0.63274375  0.24224053     0.16100
O735        O  0.08710597  0.64875545  0.24185360    -0.26200
C736        C  0.05355862  0.65157728  0.24289764     0.05900
C737        C  0.03178449  0.64192962  0.24242510    -0.31100
O738        O  0.07645222  0.60210225  0.23987984    -0.22900
C739        C  0.10991798  0.59930640  0.23518962    -0.02900
C740        C  0.13170632  0.60890062  0.23428977    -0.17400
H741        H  0.14237336  0.63347937  0.23670103     0.20600
H742        H  0.02112176  0.61736315  0.24446641     0.19000
H743        H  0.00367190  0.64176893  0.24361660     0.18900
H744        H  0.15968283  0.60905697  0.22956506     0.14800
C745        C  0.09366648  0.86477067  0.79682700     0.30300
C746        C  0.10870699  0.85635605  0.82993748    -0.36100
C747        C  0.11118119  0.84522697  0.80551549     0.16200
C748        C  0.09979435  0.84250844  0.75222204     0.22100
C749        C  0.08425269  0.85090071  0.71928294    -0.34200
C750        C  0.08169072  0.86205704  0.74374347     0.16100
O751        O  0.09027226  0.87584621  0.81037979    -0.26200
C752        C  0.07571503  0.88026693  0.76555168     0.05900
C753        C  0.06963323  0.87210669  0.72284329    -0.31100
O754        O  0.10736588  0.83176536  0.73634869    -0.22900
C755        C  0.12391880  0.82753322  0.78004833    -0.02900
C756        C  0.12639377  0.83555496  0.82462991    -0.17400
H757        H  0.11870817  0.85841506  0.87121874     0.20600
H758        H  0.07571514  0.84895706  0.67702334     0.19000
H759        H  0.05876174  0.87345872  0.68191559     0.18900
H760        H  0.13870976  0.83470014  0.86477523     0.14800
C761        C  0.13772561  0.94473498  0.44787600     0.30300
C762        C  0.10491548  0.94206885  0.46986193    -0.36100
C763        C  0.10468126  0.93480677  0.51573498     0.16200
C764        C  0.13475346  0.93046288  0.53823969     0.22100
C765        C  0.16760393  0.93308843  0.51605077    -0.34200
C766        C  0.16781617  0.94039885  0.47025893     0.16100
O767        O  0.14381599  0.95148761  0.40562426    -0.26200
C768        C  0.17828174  0.95153430  0.40053213     0.05900
C769        C  0.19465514  0.94478152  0.43985237    -0.31100
O770        O  0.12871120  0.92456428  0.58351986    -0.22900
C771        C  0.09437691  0.92511846  0.59016684    -0.02900
C772        C  0.07795972  0.93132728  0.54901670    -0.17400
H773        H  0.08126658  0.94561300  0.45305509     0.20600
H774        H  0.19132619  0.92988518  0.53409065     0.19000
H775        H  0.22219029  0.94328308  0.44486057     0.18900
H776        H  0.05075174  0.93359503  0.54623763     0.14800
C777        C  0.32606237  0.84175357  0.85892851     0.30300
C778        C  0.35455182  0.84898579  0.84774517    -0.36100
C779        C  0.34861639  0.86098995  0.85448009     0.16200
C780        C  0.31672349  0.86554540  0.87016904     0.22100
C781        C  0.28858577  0.85834466  0.88232283    -0.34200
C782        C  0.29469704  0.84641009  0.87655785     0.16100
O783        O  0.32514293  0.83029070  0.85392408    -0.26200
C784        C  0.29281223  0.82764466  0.86929109     0.05900
C785        C  0.27306510  0.83735722  0.88447701    -0.31100
O786        O  0.31675199  0.87696554  0.87379384    -0.22900
C787        C  0.34921803  0.87983340  0.86097777    -0.02900
C788        C  0.37030084  0.87024923  0.84889945    -0.17400
H789        H  0.37953135  0.84551531  0.83470528     0.20600
H790        H  0.26361743  0.86181013  0.89550258     0.19000
H791        H  0.24608020  0.83766635  0.89746526     0.18900
H792        H  0.39768778  0.87013721  0.83838951     0.14800
C793        C  0.32724315  0.92856536  0.12162928     0.30300
C794        C  0.29887379  0.92696565  0.15765515    -0.36100
C795        C  0.28617123  0.93694138  0.18562728     0.16200
C796        C  0.30036798  0.94777596  0.17889021     0.22100
C797        C  0.32919814  0.94935082  0.14354877    -0.34200
C798        C  0.34195026  0.93935175  0.11543772     0.16100
O799        O  0.34013348  0.92072116  0.08612904    -0.26200
C800        C  0.36368682  0.92647750  0.05697681     0.05900
C801        C  0.36621798  0.93809210  0.07385627    -0.31100
O802        O  0.28329519  0.95596228  0.20741306    -0.22900
C803        C  0.25794068  0.95027312  0.23298276    -0.02900
C804        C  0.25855814  0.93840372  0.22084916    -0.17400
H805        H  0.28659994  0.91860466  0.16173291     0.20600
H806        H  0.34008002  0.95783685  0.13679586     0.19000
H807        H  0.38087536  0.94487005  0.05415924     0.18900
H808        H  0.24103226  0.93180173  0.23537567     0.14800
C809        C  0.14892812  0.98362046  0.79394835     0.30300
C810        C  0.11885052  0.97794027  0.81179574    -0.36100
C811        C  0.11960798  0.96581983  0.80763905     0.16200
C812        C  0.14819079  0.95966541  0.78819417     0.22100
C813        C  0.17833777  0.96537325  0.77027773    -0.34200
C814        C  0.17729299  0.97753299  0.77320678     0.16100
O815        O  0.15433235  0.99487800  0.79673517    -0.26200
C816        C  0.18615750  0.99610253  0.77585689     0.05900
C817        C  0.20177457  0.98559892  0.76064103    -0.31100
O818        O  0.14231883  0.94840606  0.78483451    -0.22900
C819        C  0.10951759  0.94737435  0.80205463    -0.02900
C820        C  0.09415545  0.95792892  0.81685542    -0.17400
H821        H  0.09637333  0.98263838  0.82731704     0.20600
H822        H  0.20085472  0.96065809  0.75417871     0.19000
H823        H  0.22840928  0.98409177  0.74715033     0.18900
H824        H  0.06748346  0.95959548  0.82894113     0.14800
C825        C  0.30421968  0.98464909  0.85488024     0.30300
C826        C  0.33256494  0.97766935  0.83883482    -0.36100
C827        C  0.32780285  0.96571229  0.84329883     0.16200
C828        C  0.29743682  0.96090551  0.86291274     0.22100
C829        C  0.26902465  0.96791483  0.87909506    -0.34200
C830        C  0.27373809  0.97991065  0.87428327     0.16100
O831        O  0.30195209  0.99590765  0.84868802    -0.26200
C832        C  0.26953784  0.99853702  0.86421773     0.05900
C833        C  0.25094845  0.98887846  0.88141174    -0.31100
O834        O  0.29932162  0.94950864  0.86553264    -0.22900
C835        C  0.33118821  0.94701876  0.84671029    -0.02900
C836        C  0.34995515  0.95677172  0.83209582    -0.17400
H837        H  0.35638601  0.98129515  0.82275419     0.20600
H838        H  0.24483925  0.96427589  0.89365110     0.19000
H839        H  0.22370003  0.98826665  0.89212802     0.18900
H840        H  0.37672798  0.95724996  0.81831002     0.14800
C841        C  0.11991276  0.11477639  0.24209384     0.30300
C842        C  0.14924235  0.12178183  0.23558871    -0.36100
C843        C  0.14327852  0.13375204  0.23661613     0.16200
C844        C  0.11087744  0.13864466  0.24488010     0.22100
C845        C  0.08127023  0.13159361  0.25040986    -0.34200
C846        C  0.08714234  0.11953285  0.24819947     0.16100
O847        O  0.11969489  0.10335113  0.24162451    -0.26200
C848        C  0.08628573  0.10066117  0.24681630     0.05900
C849        C  0.06475337  0.11037798  0.25070004    -0.31100
O850        O  0.11192080  0.15013535  0.24673800    -0.22900
C851        C  0.14544144  0.15254636  0.23861804    -0.02900
C852        C  0.16583805  0.14264542  0.23131302    -0.17400
H853        H  0.17497555  0.11814521  0.22983246     0.20600
H854        H  0.05553540  0.13523321  0.25596041     0.19000
H855        H  0.03673488  0.11063461  0.25444776     0.18900
H856        H  0.19366336  0.14213007  0.22486826     0.14800
C857        C  0.13481146  0.99582487  0.27289063     0.30300
C858        C  0.10759284  0.00301253  0.29187609    -0.36100
C859        C  0.11130711  0.01483087  0.28178157     0.16200
C860        C  0.13973881  0.01931622  0.25450761     0.22100
C861        C  0.16692744  0.01207289  0.23500257    -0.34200
C862        C  0.16321276  0.00020204  0.24522550     0.16100
O863        O  0.13807985  0.98474469  0.28297630    -0.26200
C864        C  0.16905062  0.98184317  0.26168313     0.05900
C865        C  0.18552395  0.99111496  0.23641368    -0.31100
O866        O  0.13708652  0.03061611  0.24800957    -0.22900
C867        C  0.10658338  0.03336717  0.27159058    -0.02900
C868        C  0.08955171  0.02387463  0.29342044    -0.17400
H869        H  0.08535827  0.99964626  0.31405277     0.20600
H870        H  0.18955606  0.01546599  0.21398598     0.19000
H871        H  0.21134213  0.99142740  0.21846480     0.18900
H872        H  0.06394975  0.02358373  0.31233161     0.14800
C873        C  0.09535080  0.04183648  0.00260972     0.30300
C874        C  0.10752867  0.03130559  0.97912693    -0.36100
C875        C  0.13498794  0.03206867  0.94054187     0.16200
C876        C  0.14917541  0.04247598  0.92522683     0.22100
C877        C  0.13677688  0.05303002  0.94828364    -0.34200
C878        C  0.10960976  0.05226319  0.98753050     0.16100
O879        O  0.07326188  0.04299489  0.04484294    -0.26200
C880        C  0.07331165  0.05430462  0.05720651     0.05900
C881        C  0.09527958  0.06050371  0.02254769    -0.31100
O882        O  0.17560170  0.04111116  0.89013059    -0.22900
C883        C  0.17859911  0.02965887  0.88319516    -0.02900
C884        C  0.15387705  0.02362182  0.91356858    -0.17400
H885        H  0.09747862  0.02305435  0.99215624     0.20600
H886        H  0.14853238  0.06122547  0.93823348     0.19000
H887        H  0.10240413  0.06955266  0.02646623     0.18900
H888        H  0.15015139  0.01436657  0.91574049     0.14800
C889        C  0.33646637  0.13921318  0.36918471     0.30300
C890        C  0.36528699  0.13173139  0.36744956    -0.36100
C891        C  0.35801007  0.11991143  0.37382233     0.16200
C892        C  0.32469313  0.11574379  0.38084116     0.22100
C893        C  0.29608937  0.12322281  0.38379113    -0.34200
C894        C  0.30338900  0.13499374  0.37788781     0.16100
O895        O  0.33675039  0.15051071  0.36143028    -0.26200
C896        C  0.30337920  0.15349600  0.36564768     0.05900
C897        C  0.28165898  0.14419408  0.37644998    -0.31100
O898        O  0.32358186  0.10436529  0.38337357    -0.22900
C899        C  0.35666205  0.10118239  0.37860644    -0.02900
C900        C  0.37930423  0.11047684  0.37300729    -0.17400
H901        H  0.39140970  0.13486299  0.36060546     0.20600
H902        H  0.26986784  0.12006268  0.38923868     0.19000
H903        H  0.25363858  0.14420801  0.38052947     0.18900
H904        H  0.40726856  0.11026625  0.36801515     0.14800
C905        C  0.27179393  0.00123637  0.32415618     0.30300
C906        C  0.27542068  0.01215613  0.30053764    -0.36100
C907        C  0.29810442  0.01985127  0.32804732     0.16200
C908        C  0.31613618  0.01690234  0.37524734     0.22100
C909        C  0.31198133  0.00604022  0.39948550    -0.34200
C910        C  0.28900333  0.99838036  0.37224603     0.16100
O911        O  0.25241747  0.99272329  0.30457500    -0.26200
C912        C  0.25663382  0.98432962  0.34079091     0.05900
C913        C  0.27906076  0.98734559  0.38417474    -0.31100
O914        O  0.33703380  0.02522017  0.39284440    -0.22900
C915        C  0.33222768  0.03364306  0.35680130    -0.02900
C916        C  0.30801753  0.03085247  0.31574104    -0.17400
H917        H  0.26171941  0.01443823  0.26304196     0.20600
H918        H  0.32590265  0.00370745  0.43668675     0.19000
H919        H  0.28707835  0.98215611  0.41877398     0.18900
H920        H  0.29962824  0.03603632  0.28133272     0.14800
C921        C  0.29064867  0.04219317  0.68219111     0.30300
C922        C  0.29933797  0.05301394  0.66064533    -0.36100
C923        C  0.32669725  0.05304488  0.62147496     0.16200
C924        C  0.34445881  0.04312712  0.60497457     0.22100
C925        C  0.33555113  0.03230311  0.62608116    -0.34200
C926        C  0.30799830  0.03226182  0.66475677     0.16100
O927        O  0.26637999  0.04016978  0.71998347    -0.26200
C928        C  0.26805344  0.02876501  0.72661548     0.05900
C929        C  0.29323878  0.02340523  0.69269468    -0.31100
O930        O  0.36736926  0.04498509  0.56499298    -0.22900
C931        C  0.36424399  0.05623177  0.55540277    -0.02900
C932        C  0.33931546  0.06168933  0.58942973    -0.17400
H933        H  0.28541577  0.06083137  0.67293761     0.20600
H934        H  0.34871763  0.02442662  0.61242300     0.19000
H935        H  0.30044652  0.01434112  0.69070535     0.18900
H936        H  0.32983658  0.07049336  0.58747704     0.14800
O937        O  0.95384155  0.06574343  0.37598669    -0.57300
C938        C  0.87809643  0.06099397  0.50368346     0.75300
O939        O  0.84762782  0.08070581  0.36743413    -0.58500
C940        C  0.95386883  0.06484167  0.32298710     0.75300
C941        C  0.85198908  0.04443456  0.36186419     0.77700
Cd942      Cd  0.88994426  0.06530467  0.38790017     1.37500
O943        O  0.90408292  0.05658588  0.47810286    -0.57300
O944        O  0.87734254  0.04502466  0.39485008    -0.56100
C945        C  0.86804222  0.08896278  0.38055508     0.77600
O946        O  0.84447657  0.05357854  0.33604414    -0.58500
O947        O  0.86173871  0.06884250  0.47909580    -0.57000
O948        O  0.92448816  0.06389204  0.29976356    -0.56900
O949        O  0.89834238  0.08626373  0.39578501    -0.56100
O950        O  0.98696755  0.06410117  0.23716902    -0.57300
C951        C  0.56038093  0.05887056  0.11196529     0.75300
O952        O  0.59340196  0.08018559  0.25636916    -0.58500
C953        C  0.98649649  0.06491539  0.29029819     0.75300
C954        C  0.58932661  0.04466235  0.26541333     0.77700
Cd955      Cd  0.55133541  0.06475352  0.22929074     1.37500
O956        O  0.53946218  0.05322700  0.14171891    -0.57300
O957        O  0.55700790  0.04583293  0.27274031    -0.56100
C958        C  0.57371106  0.08856965  0.24445239     0.77600
O959        O  0.60544664  0.05341828  0.24807927    -0.58500
O960        O  0.57243802  0.06807889  0.13375642    -0.57000
O961        O  0.51543913  0.06588431  0.31465704    -0.56900
O962        O  0.54335841  0.08600063  0.22837306    -0.56100
C963        C  0.74716327  0.02246688  0.77024665     0.87000
C964        C  0.77055873  0.01630218  0.81169010    -0.53300
C965        C  0.75310339  0.00967214  0.84900677     0.09900
C966        C  0.71335145  0.01105124  0.84525694     0.20900
C967        C  0.72356071  0.01275940  0.74557249    -0.54000
C968        C  0.70575253  0.00687683  0.78555334     0.10000
C969        C  0.72314223  0.03011372  0.80704920    -0.53500
C970        C  0.70515759  0.02414391  0.84624979     0.10600
H971        H  0.79847067  0.01564769  0.80528832     0.15100
H972        H  0.69911467  0.00621886  0.87753044     0.00800
H973        H  0.72234711  0.01044553  0.70132555     0.15400
H974        H  0.71992909  0.03935597  0.80169181     0.15200
O975        O  0.94882117  0.91549329  0.88382478    -0.57300
C976        C  0.87690737  0.92193351  0.00286701     0.75300
O977        O  0.83104389  0.92707513  0.87219564    -0.58500
C978        C  0.95151491  0.91622551  0.83107468     0.75300
C979        C  0.86211391  0.89187340  0.86557159     0.77700
Cd980      Cd  0.88498664  0.91555900  0.88613160     1.37500
O981        O  0.89617787  0.92779668  0.97144664    -0.57300
O982        O  0.89289086  0.89427513  0.87986321    -0.56100
C983        C  0.84699275  0.93554727  0.85164650     0.77600
O984        O  0.84209340  0.90038743  0.85769055    -0.58500
O985        O  0.86652827  0.91230701  0.98312593    -0.57000
O986        O  0.92349310  0.91649504  0.80361973    -0.56900
O987        O  0.87865642  0.93398479  0.83959301    -0.56100
O988        O  0.98888353  0.91786500  0.75080705    -0.57300
C989        C  0.57754752  0.92123482  0.64157535     0.75300
O990        O  0.60416232  0.92681445  0.79156142    -0.58500
C991        C  0.98562761  0.91665205  0.80326574     0.75300
C992        C  0.56855134  0.89263637  0.76171286     0.77700
Cd993      Cd  0.55317203  0.91659267  0.75166946     1.37500
O994        O  0.54564917  0.92294644  0.65346604    -0.57300
O995        O  0.55118893  0.89636957  0.72124469    -0.56100
C996        C  0.58958885  0.93665751  0.79319198     0.77600
O997        O  0.57889632  0.90001847  0.79822395    -0.58500
O998        O  0.59596347  0.91661368  0.67824501    -0.57000
O999        O  0.51323184  0.91560069  0.83106047    -0.56900
O1000       O  0.55748840  0.93692105  0.78231759    -0.56100
C1001       C  0.69635154  0.95795673  0.35482049     0.87000
C1002       C  0.71683346  0.95016873  0.31400227    -0.53300
C1003       C  0.73284936  0.95601104  0.27230739     0.09900
C1004       C  0.72596957  0.96921378  0.27482173     0.20900
C1005       C  0.72254105  0.96725783  0.37571347    -0.54000
C1006       C  0.73773966  0.97322616  0.33324469     0.10000
C1007       C  0.67092213  0.96455258  0.31812884    -0.53500
C1008       C  0.68623915  0.97093615  0.27769620     0.10600
H1009       H  0.71965995  0.94091479  0.31937721     0.15100
H1010       H  0.73879549  0.97383490  0.24026453     0.00800
H1011       H  0.72639334  0.96950518  0.41961871     0.15400
H1012       H  0.64357404  0.96548410  0.32880328     0.15200
C1013       C  0.53996311  0.66399851  0.24533378     0.87000
C1014       C  0.52096672  0.66759769  0.19209136    -0.53300
C1015       C  0.50734530  0.67854990  0.19521653     0.09900
C1016       C  0.51239142  0.68465285  0.25270690     0.20900
C1017       C  0.56666440  0.67352300  0.25608682    -0.54000
C1018       C  0.55247529  0.68440823  0.26016548     0.10000
C1019       C  0.51394376  0.66567680  0.29307166    -0.53500
C1020       C  0.99706475  0.67610360  0.29519385     0.10600
H1021       H  0.52032407  0.66219337  0.15419266     0.15100
H1022       H  0.50100517  0.69345652  0.25686865     0.00800
H1023       H  0.59426987  0.67181045  0.25961275     0.15400
H1024       H  0.00605037  0.65853380  0.31987737     0.15200
C1025       C  0.90688525  0.66627029  0.34287152     0.87000
C1026       C  0.91620110  0.67037315  0.40258522    -0.53300
C1027       C  0.93308396  0.68081889  0.40565418     0.09900
C1028       C  0.94034384  0.68601092  0.34801325     0.20900
C1029       C  0.88649495  0.67628822  0.31867843    -0.54000
C1030       C  0.90364880  0.68670962  0.32155717     0.10000
C1031       C  0.94112683  0.66625795  0.31085418    -0.53500
C1032       C  0.95988960  0.67624696  0.31487115     0.10600
H1033       H  0.90893207  0.66559619  0.43931594     0.15100
H1034       H  0.95452509  0.69436797  0.34981380     0.00800
H1035       H  0.86006711  0.67531461  0.30374134     0.15400
H1036       H  0.95059747  0.65865570  0.28776851     0.15200
C1037       C  0.96351290  0.71655273  0.86303817     0.87000
C1038       C  0.96000128  0.70942496  0.80827034    -0.53300
C1039       C  0.95865493  0.71592043  0.76135865     0.09900
C1040       C  0.96110318  0.72906868  0.77398676     0.20900
C1041       C  0.49552370  0.72426290  0.85481950    -0.54000
C1042       C  0.99468579  0.73064786  0.80808384     0.10000
C1043       C  0.93281308  0.72502270  0.86275220    -0.53500
C1044       C  0.93155787  0.73167312  0.81646628     0.10600
H1045       H  0.95870735  0.70007243  0.80659137     0.15100
H1046       H  0.96011325  0.73436603  0.73603743     0.00800
H1047       H  0.51676996  0.72458125  0.88443123     0.15400
H1048       H  0.91420634  0.72587972  0.89696801     0.15200
C1049       C  0.77796144  0.81554445  0.86770733     0.87000
C1050       C  0.76654627  0.81174021  0.92607149    -0.53300
C1051       C  0.75025550  0.80123416  0.92652303     0.09900
C1052       C  0.74585258  0.79560040  0.86780572     0.20900
C1053       C  0.80015636  0.80550618  0.84400188    -0.54000
C1054       C  0.78342358  0.79500940  0.84418818     0.10000
C1055       C  0.74529601  0.81508123  0.83242892    -0.53500
C1056       C  0.72733956  0.80490583  0.83388611     0.10600
H1057       H  0.77203052  0.81679884  0.96397963     0.15100
H1058       H  0.73198442  0.78718713  0.86728379     0.00800
H1059       H  0.82689176  0.80650930  0.83023772     0.15400
H1060       H  0.73593619  0.82257876  0.81053641     0.15200
C1061       C  0.64331192  0.81601222  0.77707696     0.87000
C1062       C  0.66142461  0.81380310  0.72010472    -0.53300
C1063       C  0.67789556  0.80331296  0.71509683     0.09900
C1064       C  0.67634759  0.79626517  0.76867109     0.20900
C1065       C  0.61972739  0.80556043  0.78403241    -0.54000
C1066       C  0.63686508  0.79517980  0.77975389     0.10000
C1067       C  0.67176436  0.81455292  0.82040993    -0.53500
C1068       C  0.69058738  0.80457974  0.81464423     0.10600
H1069       H  0.65910196  0.81968102  0.68575342     0.15100
H1070       H  0.69009988  0.78781057  0.76543060     0.00800
H1071       H  0.59179186  0.80627790  0.78982110     0.15400
H1072       H  0.67981420  0.82147464  0.84896408     0.15200
C1073       C  0.71961395  0.76447780  0.37241232     0.87000
C1074       C  0.72135869  0.77196204  0.32085374    -0.53300
C1075       C  0.72511439  0.76576998  0.27149999     0.09900
C1076       C  0.72662048  0.75248501  0.27899729     0.20900
C1077       C  0.68974090  0.75600567  0.36080868    -0.54000
C1078       C  0.69337400  0.74964772  0.31213782     0.10000
C1079       C  0.75272165  0.75708022  0.36933567    -0.53500
C1080       C  0.75637383  0.75063724  0.32081782     0.10600
H1081       H  0.71943404  0.78132979  0.32345428     0.15100
H1082       H  0.72952575  0.74734629  0.23926403     0.00800
H1083       H  0.66830589  0.75483361  0.38985076     0.15400
H1084       H  0.77069000  0.75659487  0.40397387     0.15200
C1085       C  0.90881114  0.31640641  0.81220968     0.87000
C1086       C  0.88549358  0.30621348  0.79487236    -0.53300
C1087       C  0.90245854  0.29573139  0.79373312     0.09900
C1088       C  0.94144889  0.29653772  0.80967942     0.20900
C1089       C  0.92413646  0.31308147  0.86868687    -0.54000
C1090       C  0.94064658  0.30257587  0.86801507     0.10000
C1091       C  0.93871286  0.31568134  0.77069867    -0.53500
C1092       C  0.95719281  0.30563872  0.77057312     0.10600
H1093       H  0.85798598  0.30712108  0.78623739     0.15100
H1094       H  0.95549075  0.28813296  0.80840113     0.00800
H1095       H  0.92042948  0.31841683  0.90632583     0.15400
H1096       H  0.94616349  0.32299094  0.74559564     0.15200
C1097       C  0.54294344  0.31579592  0.70860866     0.87000
C1098       C  0.56485499  0.30537646  0.72443451    -0.53300
C1099       C  0.54674035  0.29517469  0.72367638     0.09900
C1100       C  0.50840235  0.29625750  0.70590742     0.20900
C1101       C  0.52816779  0.31250167  0.65087939    -0.54000
C1102       C  0.51065191  0.30216027  0.64874923     0.10000
C1103       C  0.51186058  0.31554391  0.74831534    -0.53500
C1104       C  0.99270452  0.30565092  0.74547743     0.10600
H1105       H  0.59230697  0.30594777  0.73433160     0.15100
H1106       H  0.49391798  0.28794218  0.70471516     0.00800
H1107       H  0.53278991  0.31771002  0.61456526     0.15400
H1108       H  0.50426438  0.32296779  0.77452143     0.15200
C1109       C  0.97344238  0.26281763  0.20044946     0.87000
C1110       C  0.00617319  0.25526986  0.20408214    -0.53300
C1111       C  0.50822368  0.24889590  0.25211332     0.09900
C1112       C  0.97685381  0.25100560  0.29149932     0.20900
C1113       C  0.94281809  0.25447792  0.20819783    -0.54000
C1114       C  0.94463595  0.24824545  0.25575692     0.10000
C1115       C  0.97378048  0.27041065  0.25430186    -0.53500
C1116       C  0.97553095  0.26426267  0.30233110     0.10600
H1117       H  0.52591118  0.25457546  0.17153978     0.15100
H1118       H  0.97837821  0.24586585  0.32987848     0.00800
H1119       H  0.92218339  0.25337138  0.17777774     0.15400
H1120       H  0.97285234  0.27980823  0.25445883     0.15200
C1121       C  0.66129713  0.16450439  0.23975458     0.87000
C1122       C  0.63834992  0.17474330  0.25846876    -0.53300
C1123       C  0.65533959  0.18521453  0.25890715     0.09900
C1124       C  0.69399084  0.18436100  0.24034805     0.20900
C1125       C  0.67578447  0.16779281  0.18241979    -0.54000
C1126       C  0.69231324  0.17828034  0.18217701     0.10000
C1127       C  0.69196226  0.16519996  0.27926819    -0.53500
C1128       C  0.71057810  0.17525755  0.27825361     0.10600
H1129       H  0.61096638  0.17383769  0.26849587     0.15100
H1130       H  0.70786296  0.19278859  0.24059355     0.00800
H1131       H  0.67160580  0.16245385  0.14501151     0.15400
H1132       H  0.69911598  0.15793720  0.30469954     0.15200
C1133       C  0.78971976  0.16542438  0.35709483     0.87000
C1134       C  0.81544728  0.17480425  0.34147213    -0.53300
C1135       C  0.80037440  0.18541613  0.33389558     0.09900
C1136       C  0.76026874  0.18554652  0.34307518     0.20900
C1137       C  0.77074525  0.17028376  0.40911124    -0.54000
C1138       C  0.75576457  0.18086568  0.40251451     0.10000
C1139       C  0.76316881  0.16544465  0.31046322    -0.53500
C1140       C  0.74577282  0.17566937  0.30464180     0.10600
H1141       H  0.84312794  0.17319804  0.33713082     0.15100
H1142       H  0.74783278  0.19409767  0.33717071     0.00800
H1143       H  0.77025207  0.16583500  0.44853056     0.15400
H1144       H  0.75658936  0.15755059  0.28706972     0.15200
C1145       C  0.72091093  0.21845505  0.85034020     0.87000
C1146       C  0.75380656  0.22584655  0.84390524    -0.53300
C1147       C  0.75461800  0.23203542  0.79619481     0.09900
C1148       C  0.72297810  0.22989803  0.75829771     0.20900
C1149       C  0.69038628  0.22696397  0.84423298    -0.54000
C1150       C  0.69144436  0.23297595  0.79581653     0.10000
C1151       C  0.71975014  0.21071030  0.79709842    -0.53500
C1152       C  0.72069079  0.21670642  0.74863856     0.10600
H1153       H  0.77363582  0.22663719  0.87589240     0.15100
H1154       H  0.72448954  0.23457367  0.71866107     0.00800
H1155       H  0.67003602  0.22815937  0.87553350     0.15400
H1156       H  0.71811372  0.20134597  0.79796063     0.15200
O1157       O  0.74646143  0.41771281  0.80804813    -0.57300
C1158       C  0.82010907  0.42275783  0.92875946     0.75300
O1159       O  0.85062562  0.40108624  0.78282167    -0.58500
C1160       C  0.74436271  0.41708885  0.75504358     0.75300
C1161       C  0.85004195  0.43641340  0.77514300     0.77700
Cd1162     Cd  0.81028011  0.41691289  0.81159098     1.37500
O1163       O  0.79951489  0.42856356  0.89951906    -0.57300
O1164       O  0.81757000  0.43572984  0.76880784    -0.56100
C1165       C  0.82999183  0.39298284  0.79525535     0.77600
O1166       O  0.86533060  0.42735461  0.79056549    -0.58500
O1167       O  0.83164687  0.41348026  0.90659751    -0.57000
O1168       O  0.77273159  0.41648935  0.72790643    -0.56900
O1169       O  0.79995086  0.39591984  0.81201418    -0.56100
O1170       O  0.63921307  0.41773384  0.57311692    -0.57300
C1171       C  0.71046316  0.41689055  0.72684326     0.75300
O1172       O  0.61054677  0.43003519  0.73512328    -0.58500
C1173       C  0.60622676  0.41884991  0.57512145     0.75300
C1174       C  0.62312811  0.39222792  0.69432170     0.77700
Cd1175     Cd  0.64281236  0.41578390  0.67645892     1.37500
O1176       O  0.70753838  0.41618335  0.67382731    -0.57300
O1177       O  0.64482976  0.39494389  0.65688920    -0.56100
C1178       C  0.61822092  0.43844376  0.70397380     0.77600
O1179       O  0.61054551  0.40044308  0.72474001    -0.58500
O1180       O  0.68257331  0.41727041  0.75518487    -0.57000
O1181       O  0.59142067  0.41743340  0.62185996    -0.56900
O1182       O  0.63896280  0.43642253  0.66357691    -0.56100
C1183       C  0.99070338  0.45677844  0.29040046     0.87000
C1184       C  0.51763271  0.46511373  0.26504492    -0.53300
C1185       C  0.50450850  0.47170073  0.22384128     0.09900
C1186       C  0.96586567  0.46879690  0.20949352     0.20900
C1187       C  0.95990819  0.46478893  0.30842630    -0.54000
C1188       C  0.94704517  0.47120552  0.26547706     0.10000
C1189       C  0.97692137  0.44936215  0.24183582    -0.53500
C1190       C  0.96301726  0.45555668  0.19989089     0.10600
H1191       H  0.54317419  0.46660176  0.28294581     0.15100
H1192       H  0.95634152  0.47360510  0.17334552     0.00800
H1193       H  0.95061422  0.46575222  0.35125385     0.15400
H1194       H  0.97555203  0.43998769  0.24332848     0.15200
O1195       O  0.74668696  0.56440561  0.34392897    -0.57300
C1196       C  0.83850771  0.56196693  0.45491625     0.75300
O1197       O  0.84599799  0.55126468  0.28655545    -0.58500
C1198       C  0.74508690  0.56445117  0.29082351     0.75300
C1199       C  0.83002101  0.58913912  0.33764609     0.77700
Cd1200     Cd  0.81101901  0.56520897  0.34652323     1.37500
O1201       O  0.80577180  0.56142281  0.44758750    -0.57300
O1202       O  0.80553369  0.58595087  0.36927046    -0.56100
C1203       C  0.83808699  0.54272622  0.31668394     0.77600
O1204       O  0.84561090  0.58125747  0.30883657    -0.58500
O1205       O  0.85705300  0.56501623  0.41399161    -0.57000
O1206       O  0.77363017  0.56475555  0.26432402    -0.56900
O1207       O  0.81716781  0.54466406  0.35678986    -0.56100
O1208       O  0.71055203  0.56452761  0.20790109    -0.57300
C1209       C  0.63864249  0.55805812  0.08539310     0.75300
O1210       O  0.59137061  0.55362794  0.21745443    -0.58500
C1211       C  0.71182801  0.56426132  0.26089275     0.75300
C1212       C  0.62222682  0.58750103  0.22578563     0.77700
Cd1213     Cd  0.64644412  0.56426021  0.20246752     1.37500
O1214       O  0.65562032  0.55172281  0.11763175    -0.57300
O1215       O  0.65146347  0.58535448  0.20335095    -0.56100
C1216       C  0.60648107  0.54466480  0.23446369     0.77600
O1217       O  0.60392873  0.57886250  0.23900027    -0.58500
O1218       O  0.63056682  0.56802647  0.10443097    -0.57000
O1219       O  0.68307716  0.56390508  0.28676553    -0.56900
O1220       O  0.63865595  0.54548398  0.24392264    -0.56100
C1221       C  0.95815923  0.52416170  0.73411728     0.87000
C1222       C  0.97851644  0.53128290  0.77752471    -0.53300
C1223       C  0.99461045  0.52474930  0.81630239     0.09900
C1224       C  0.98774170  0.51159929  0.80862781     0.20900
C1225       C  0.98458341  0.51524632  0.70918312    -0.54000
C1226       C  0.00007512  0.50866325  0.74889446     0.10000
C1227       C  0.93278564  0.51694792  0.76835392    -0.53500
C1228       C  0.94810779  0.50978952  0.80517691     0.10600
H1229       H  0.98134470  0.54062539  0.77597455     0.15100
H1230       H  0.99994786  0.50639320  0.84138708     0.00800
H1231       H  0.98936370  0.51401013  0.66464490     0.15400
H1232       H  0.90553209  0.51613333  0.75744831     0.15200
C1233       C  0.54970711  0.54220285  0.90000052     0.30300
C1234       C  0.56224957  0.55265750  0.92346208    -0.36100
C1235       C  0.58921039  0.55171527  0.96229688     0.16200
C1236       C  0.60308597  0.54120519  0.97678287     0.22100
C1237       C  0.59083393  0.53075104  0.95268941    -0.34200
C1238       C  0.56356312  0.53169191  0.91434496     0.16100
O1239       O  0.02282182  0.54131991  0.86508026    -0.26200
C1240       C  0.52042699  0.52965642  0.85659174     0.05900
C1241       C  0.54472465  0.52339321  0.88638418    -0.31100
O1242       O  0.62502070  0.54222941  0.01884247    -0.22900
C1243       C  0.62532583  0.55354013  0.03146163    -0.02900
C1244       C  0.60372929  0.55986772  0.99721617    -0.17400
H1245       H  0.55080873  0.56091833  0.91383293     0.20600
H1246       H  0.60072284  0.52243742  0.96500301     0.19000
H1247       H  0.54832810  0.51411219  0.88714698     0.18900
H1248       H  0.59693804  0.56894891  0.00134487     0.14800
C1249       C  0.89578869  0.55301570  0.55741337     0.30300
C1250       C  0.92866681  0.55034976  0.57875387    -0.36100
C1251       C  0.92898380  0.54291369  0.62406024     0.16200
C1252       C  0.89896469  0.53844407  0.64659715     0.22100
C1253       C  0.86611109  0.54118584  0.62565465    -0.34200
C1254       C  0.86577522  0.54863409  0.58049130     0.16100
O1255       O  0.88968318  0.55892033  0.51224007    -0.26200
C1256       C  0.85533533  0.55841006  0.50652393     0.05900
C1257       C  0.83901539  0.55218407  0.54804963    -0.31100
O1258       O  0.90519895  0.53137970  0.68743677    -0.22900
C1259       C  0.93968634  0.53128475  0.69153365    -0.02900
C1260       C  0.95591643  0.53834485  0.65309362    -0.17400
H1261       H  0.95236428  0.55357126  0.56024555     0.20600
H1262       H  0.84252588  0.53752588  0.64251544     0.19000
H1263       H  0.81188058  0.54983466  0.55119376     0.18900
H1264       H  0.98345770  0.53977151  0.64716122     0.14800
C1265       C  0.55707571  0.49637766  0.22527183     0.30300
C1266       C  0.58597580  0.50286519  0.24241845    -0.36100
C1267       C  0.58272436  0.51488550  0.23940229     0.21000
C1268       C  0.55325668  0.52023461  0.22010661     0.22100
C1269       C  0.52424914  0.51370758  0.20257151    -0.34200
C1270       C  0.52743267  0.50161134  0.20599358     0.16100
O1271       O  0.55363958  0.48511583  0.22955954    -0.26200
C1272       C  0.52136742  0.48295312  0.21269764     0.05900
C1273       C  0.50392948  0.49292075  0.19679726    -0.31100
O1274       O  0.55669143  0.53161200  0.21893363    -0.22900
C1275       C  0.58864528  0.53349514  0.23827599    -0.02900
C1276       C  0.60589199  0.52339936  0.25181110    -0.17400
H1277       H  0.60917863  0.49881864  0.25813636     0.20600
H1278       H  0.50079283  0.51776370  0.18789564     0.19000
H1279       H  0.47710214  0.49382541  0.18474957     0.18900
H1280       H  0.63243062  0.52242913  0.26564357     0.14800
C1281       C  0.89669600  0.49520638  0.31063736     0.30300
C1282       C  0.88388410  0.50357896  0.34917969    -0.36100
C1283       C  0.87152611  0.51387490  0.32645370     0.16200
C1284       C  0.87210647  0.51591018  0.26983483     0.22100
C1285       C  0.88391596  0.50740445  0.23128429    -0.34200
C1286       C  0.89578432  0.49706217  0.25398528     0.16100
O1287       O  0.91287022  0.48547724  0.32258925    -0.26200
C1288       C  0.92213767  0.48098611  0.27275002     0.05900
C1289       C  0.91123392  0.48775059  0.22872216    -0.31100
O1290       O  0.86108107  0.52641127  0.25812912    -0.22900
C1291       C  0.85276940  0.53106042  0.30795142    -0.02900
C1292       C  0.85855008  0.52364287  0.35177866    -0.17400
H1293       H  0.88455032  0.50232481  0.39382541     0.20600
H1294       H  0.88477004  0.50886589  0.18680539     0.19000
H1295       H  0.91587920  0.48656786  0.18434811     0.18900
H1296       H  0.85433870  0.52532321  0.39607673     0.14800
C1297       C  0.54742256  0.48282843  0.75654865     0.30300
C1298       C  0.55933953  0.47303097  0.78361134    -0.36100
C1299       C  0.57650399  0.46475972  0.74990363     0.16200
C1300       C  0.58215976  0.46611709  0.69343534     0.22100
C1301       C  0.56988289  0.47594195  0.66607268    -0.34200
C1302       C  0.55210473  0.48418677  0.69989526     0.16100
O1303       O  0.52957947  0.49130678  0.78026019    -0.26200
C1304       C  0.52213084  0.49824573  0.73868741     0.05900
C1305       C  0.53551974  0.49428060  0.68729294    -0.31100
O1306       O  0.59848863  0.45715022  0.67013063    -0.22900
C1307       C  0.60285652  0.44997602  0.71221843    -0.02900
C1308       C  0.58954316  0.45422666  0.76272427    -0.17400
H1309       H  0.55484100  0.47183660  0.82778147     0.20600
H1310       H  0.57335750  0.47696560  0.62156342     0.19000
H1311       H  0.53277116  0.49807982  0.64674442     0.18900
H1312       H  0.58919855  0.45009904  0.80278494     0.14800
C1313       C  0.51736226  0.44147008  0.41027550     0.30300
C1314       C  0.51591067  0.43766325  0.46538038    -0.36100
C1315       C  0.54438906  0.43110358  0.48277334     0.16200
C1316       C  0.57266943  0.42856151  0.44875530     0.22100
C1317       C  0.57363873  0.43207613  0.39314086    -0.34200
C1318       C  0.54498462  0.43852611  0.37558898     0.16100
O1319       O  0.49464984  0.44830340  0.38622612    -0.26200
C1320       C  0.50778510  0.44963291  0.33520712     0.05900
C1321       C  0.53879609  0.44360707  0.32622585    -0.31100
O1322       O  0.59805190  0.42342607  0.47565073    -0.22900
C1323       C  0.58550384  0.42249033  0.52727831    -0.02900
C1324       C  0.55215448  0.42702090  0.53383342    -0.17400
H1325       H  0.49464831  0.43998219  0.49336684     0.20600
H1326       H  0.59572999  0.43027139  0.36602683     0.19000
H1327       H  0.55497610  0.44335498  0.28901841     0.18900
H1328       H  0.53691444  0.42795225  0.57190695     0.14800
C1329       C  0.90240536  0.46091477  0.79285793     0.30300
C1330       C  0.93016525  0.46746657  0.81498699    -0.36100
C1331       C  0.92626323  0.47957027  0.81442808     0.16200
C1332       C  0.89708633  0.48479955  0.79354176     0.22100
C1333       C  0.86946757  0.47828671  0.77143640    -0.34200
C1334       C  0.87343411  0.46624366  0.77169545     0.16100
O1335       O  0.89933118  0.44951696  0.79256588    -0.26200
C1336       C  0.86807344  0.44756361  0.77060418     0.05900
C1337       C  0.85101453  0.45766763  0.75638209    -0.31100
O1338       O  0.89984277  0.49613660  0.79289502    -0.22900
C1339       C  0.93131439  0.49835625  0.81338329    -0.02900
C1340       C  0.94873379  0.48831837  0.82841167    -0.17400
H1341       H  0.95317151  0.46341827  0.83143112     0.20600
H1342       H  0.84657814  0.48234373  0.75464554     0.19000
H1343       H  0.82471171  0.45860518  0.74140511     0.18900
H1344       H  0.97513466  0.48744619  0.84285475     0.14800
C1345       C  0.86983226  0.42880440  0.04710757     0.30300
C1346       C  0.89832935  0.42702376  0.08212892    -0.36100
C1347       C  0.91156628  0.43692060  0.10980212     0.16200
C1348       C  0.89759637  0.44781632  0.10402469     0.22100
C1349       C  0.86859749  0.44956093  0.06994346    -0.34200
C1350       C  0.85541407  0.43966583  0.04194410     0.16100
O1351       O  0.85675412  0.42112243  0.01124584    -0.26200
C1352       C  0.83338088  0.42707634  0.98299230     0.05900
C1353       C  0.83108943  0.43862927  0.00092291    -0.31100
O1354       O  0.91468698  0.45587653  0.13282643    -0.22900
C1355       C  0.93994583  0.45006531  0.15748904    -0.02900
C1356       C  0.93924888  0.43822556  0.14439797    -0.17400
H1357       H  0.91036107  0.41860546  0.08551286     0.20600
H1358       H  0.85788677  0.45809821  0.06400930     0.19000
H1359       H  0.81671707  0.44553559  0.98195949     0.18900
H1360       H  0.95631552  0.43150320  0.15876374     0.14800
C1361       C  0.72346805  0.18981144  0.53368845     0.30300
C1362       C  0.71642264  0.18816977  0.59043807    -0.36100
C1363       C  0.71590451  0.19817584  0.62482352     0.16200
C1364       C  0.72138440  0.20910390  0.60478995     0.22100
C1365       C  0.72747108  0.21078879  0.54749425    -0.34200
C1366       C  0.72845363  0.20072198  0.51298912     0.16100
O1367       O  0.73026677  0.18152629  0.49638111    -0.26200
C1368       C  0.73951577  0.18710615  0.45075536     0.05900
C1369       C  0.73844212  0.19910465  0.45830726    -0.31100
O1370       O  0.72305953  0.21708092  0.64538926    -0.22900
C1371       C  0.71875806  0.21116239  0.69198571    -0.02900
C1372       C  0.71387650  0.19935923  0.68144447    -0.17400
H1373       H  0.71383997  0.17961441  0.60720633     0.20600
H1374       H  0.73313711  0.21925401  0.53155577     0.19000
H1375       H  0.74712009  0.20560522  0.42969339     0.18900
H1376       H  0.71071496  0.19252407  0.71099101     0.14800
C1377       C  0.71590106  0.19830616  0.95947940     0.30300
C1378       C  0.71094053  0.18744679  0.98311238    -0.36100
C1379       C  0.71027743  0.18732666  0.04175108     0.16200
C1380       C  0.71449357  0.19718047  0.07496635     0.22100
C1381       C  0.71977115  0.20803285  0.05130280    -0.34200
C1382       C  0.72004368  0.20817750  0.99262500     0.16100
O1383       O  0.71587236  0.20048348  0.90564707    -0.26200
C1384       C  0.71988294  0.21192374  0.90411453     0.05900
C1385       C  0.72258297  0.21715456  0.95710461    -0.31100
O1386       O  0.71042117  0.19519303  0.12869121    -0.22900
C1387       C  0.70338225  0.18391751  0.13004011    -0.02900
C1388       C  0.70327571  0.17857768  0.07698706    -0.17400
H1389       H  0.70681058  0.17968883  0.95756540     0.20600
H1390       H  0.72228106  0.21587304  0.07684321     0.19000
H1391       H  0.72560145  0.22626980  0.96769855     0.18900
H1392       H  0.69725502  0.16968204  0.06549810     0.14800
C1393       C  0.83850969  0.21177760  0.29416952     0.30300
C1394       C  0.84123788  0.22251928  0.26806541    -0.36100
C1395       C  0.87362716  0.22813157  0.27260141     0.16200
C1396       C  0.90111957  0.22355548  0.30146202     0.22100
C1397       C  0.89848815  0.21284556  0.32698618    -0.34200
C1398       C  0.86647041  0.20720674  0.32181943     0.16100
O1399       O  0.81099699  0.20488978  0.29504545    -0.26200
C1400       C  0.82188025  0.19576495  0.32306870     0.05900
C1401       C  0.85615514  0.19680614  0.34061040    -0.31100
O1402       O  0.92904477  0.23012312  0.30033752    -0.22900
C1403       C  0.91971865  0.23901508  0.26976937    -0.02900
C1404       C  0.88545820  0.23825398  0.25129384    -0.17400
H1405       H  0.81982657  0.22617666  0.24538260     0.20600
H1406       H  0.92008054  0.20910016  0.34889606     0.19000
H1407       H  0.87134036  0.19079107  0.36427909     0.18900
H1408       H  0.87144412  0.24422731  0.22566510     0.14800
C1409       C  0.61945908  0.21323466  0.25737041     0.30300
C1410       C  0.61376759  0.22424213  0.23550311    -0.36100
C1411       C  0.58274530  0.22982551  0.25211509     0.16200
C1412       C  0.55926962  0.22502770  0.28860859     0.22100
C1413       C  0.56517226  0.21411087  0.31099545    -0.34200
C1414       C  0.59578910  0.20843794  0.29355479     0.16100
O1415       O  0.64468030  0.20594966  0.24278849    -0.26200
C1416       C  0.63686683  0.19633191  0.26963734     0.05900
C1417       C  0.60683355  0.19744365  0.30210195    -0.31100
O1418       O  0.53077354  0.23130439  0.29509399    -0.22900
C1419       C  0.53579711  0.24022452  0.26199107    -0.02900
C1420       C  0.56784030  0.23977571  0.23443635    -0.17400
H1421       H  0.63135399  0.22792146  0.20533001     0.20600
H1422       H  0.54629653  0.21005265  0.33782739     0.19000
H1423       H  0.59392502  0.19088735  0.32608764     0.18900
H1424       H  0.57811176  0.24565638  0.20405810     0.14800
C1425       C  0.60292825  0.27157566  0.72333509     0.30300
C1426       C  0.63258508  0.26541248  0.70671225    -0.36100
C1427       C  0.64124246  0.25603251  0.73929788     0.16200
C1428       C  0.62227992  0.25284878  0.78544912     0.22100
C1429       C  0.59188688  0.25891147  0.80160355    -0.34200
C1430       C  0.58299729  0.26835464  0.76854253     0.16100
O1431       O  0.59208307  0.28117455  0.70113662    -0.26200
C1432       C  0.56440952  0.28411205  0.73158855     0.05900
C1433       C  0.55715723  0.27645410  0.77402332    -0.31100
O1434       O  0.63695504  0.24418755  0.81160118    -0.22900
C1435       C  0.66547984  0.24184156  0.78127120    -0.02900
C1436       C  0.66913042  0.24894630  0.73571677    -0.17400
H1437       H  0.64853147  0.26800414  0.67180380     0.20600
H1438       H  0.57689848  0.25665927  0.83812967     0.19000
H1439       H  0.53717251  0.27715926  0.80598037     0.18900
H1440       H  0.68974518  0.24926311  0.70496903     0.14800
C1441       C  0.98233694  0.28329485  0.41954306     0.30300
C1442       C  0.98849451  0.29395531  0.44724207    -0.36100
C1443       C  0.99022720  0.29374829  0.50574494     0.16200
C1444       C  0.48583539  0.28367602  0.53586409     0.22100
C1445       C  0.47940348  0.27298709  0.50805386    -0.34200
C1446       C  0.47802250  0.27317518  0.44926998     0.16100
O1447       O  0.98158418  0.28146083  0.36489246    -0.26200
C1448       C  0.97678371  0.27008412  0.35853032     0.05900
C1449       C  0.47444535  0.26444065  0.40994796    -0.31100
O1450       O  0.49102045  0.28539737  0.59012219    -0.22900
C1451       C  0.49865580  0.29663975  0.59532089    -0.02900
C1452       C  0.99840566  0.30227273  0.54374762    -0.17400
H1453       H  0.99278156  0.30180976  0.42461419     0.20600
H1454       H  0.47689680  0.26502785  0.53049238     0.19000
H1455       H  0.47107163  0.25531126  0.41722427     0.18900
H1456       H  0.00460750  0.31117971  0.53516749     0.14800
C1457       C  0.60987449  0.36215338  0.68651989     0.30300
C1458       C  0.61383606  0.35076229  0.66477693    -0.36100
C1459       C  0.59238771  0.34233683  0.68847326     0.16200
C1460       C  0.56879365  0.34501916  0.73050247     0.22100
C1461       C  0.56503166  0.35634024  0.75246414    -0.34200
C1462       C  0.58635988  0.36472830  0.72886335     0.16100
O1463       O  0.62619000  0.37145515  0.66926249    -0.26200
C1464       C  0.61298660  0.38006426  0.70109746     0.05900
C1465       C  0.58811003  0.37638247  0.73898652    -0.31100
O1466       O  0.54978026  0.33608626  0.74418867    -0.22900
C1467       C  0.56105788  0.32744263  0.71074812    -0.02900
C1468       C  0.58795054  0.33081046  0.67539412    -0.17400
H1469       H  0.63176824  0.34867542  0.63093932     0.20600
H1470       H  0.54611028  0.35850370  0.78477572     0.19000
H1471       H  0.57302983  0.38156812  0.76874048     0.18900
H1472       H  0.60089285  0.32568032  0.64290550     0.14800
C1473       C  0.84243632  0.27354051  0.76493712     0.30300
C1474       C  0.81052164  0.26893296  0.74719653    -0.36100
C1475       C  0.80311406  0.25765249  0.76382295     0.16200
C1476       C  0.82532858  0.25136420  0.79631672     0.22100
C1477       C  0.85761726  0.25589642  0.81317485    -0.34200
C1478       C  0.86524474  0.26715023  0.79594051     0.16100
O1479       O  0.85314414  0.28424898  0.75818660    -0.26200
C1480       C  0.88350532  0.28472280  0.78443488     0.05900
C1481       C  0.89252038  0.27429417  0.80834469    -0.31100
O1482       O  0.81178491  0.24137880  0.81092263    -0.22900
C1483       C  0.78073629  0.24118779  0.78659451    -0.02900
C1484       C  0.77407186  0.25108893  0.75662467    -0.17400
H1485       H  0.79221912  0.27394172  0.72369915     0.20600
H1486       H  0.87503749  0.25114208  0.83943058     0.19000
H1487       H  0.91459857  0.27249795  0.83449508     0.18900
H1488       H  0.75050295  0.25344441  0.73539817     0.14800
C1489       C  0.96360378  0.28368386  0.97493918     0.30300
C1490       C  0.96924536  0.27287689  0.99891671    -0.36100
C1491       C  0.97018702  0.27285226  0.05767327     0.16200
C1492       C  0.96631028  0.28278121  0.09061470     0.22100
C1493       C  0.96089837  0.29357647  0.06664082    -0.34200
C1494       C  0.95962464  0.29358314  0.00799774     0.16100
O1495       O  0.95913535  0.28560881  0.92122817    -0.26200
C1496       C  0.95210330  0.29690011  0.91979735     0.05900
C1497       C  0.95238435  0.30228366  0.97275458    -0.31100
O1498       O  0.96717501  0.28073372  0.14464226    -0.22900
C1499       C  0.97150890  0.26931156  0.14653515    -0.02900
C1500       C  0.97344148  0.26397299  0.09356664    -0.17400
H1501       H  0.97166097  0.26499108  0.97362859     0.20600
H1502       H  0.95703014  0.30138896  0.09200304     0.19000
H1503       H  0.94654346  0.31120079  0.98428427     0.18900
H1504       H  0.97652414  0.25484148  0.08324928     0.14800
C1505       C  0.86079852  0.34268771  0.80460972     0.30300
C1506       C  0.83227155  0.35002622  0.79568267    -0.36100
C1507       C  0.83954413  0.36198139  0.79559961     0.16200
C1508       C  0.87264503  0.36635722  0.80272879     0.22100
C1509       C  0.90082411  0.35908661  0.81283178    -0.34200
C1510       C  0.89342706  0.34724356  0.81411345     0.16100
O1511       O  0.86072412  0.33120013  0.80389536    -0.26200
C1512       C  0.89372286  0.32848527  0.81398901     0.05900
C1513       C  0.91484879  0.33816555  0.82173610    -0.31100
O1514       O  0.87379423  0.37774058  0.80097949    -0.22900
C1515       C  0.84093586  0.38078903  0.79335652    -0.02900
C1516       C  0.81837441  0.37136212  0.78999169    -0.17400
H1517       H  0.80634572  0.34667072  0.78903250     0.20600
H1518       H  0.92677709  0.36243635  0.81933808     0.19000
H1519       H  0.94259729  0.33839697  0.82881167     0.18900
H1520       H  0.79044306  0.37144646  0.78517164     0.14800
C1521       C  0.70207077  0.78514871  0.60178384     0.30300
C1522       C  0.70840037  0.77442525  0.57487527    -0.36100
C1523       C  0.71080485  0.77451252  0.51650497     0.16200
C1524       C  0.70754312  0.78446635  0.48640789     0.22100
C1525       C  0.70110142  0.79522993  0.51339922    -0.34200
C1526       C  0.69847216  0.79512938  0.57199965     0.16100
O1527       O  0.69698711  0.78688824  0.65581844    -0.26200
C1528       C  0.68994677  0.79813441  0.66115267     0.05900
C1529       C  0.69064840  0.80373287  0.61023196    -0.31100
O1530       O  0.71040795  0.78244391  0.43195819    -0.22900
C1531       C  0.71540601  0.77103464  0.42735577    -0.02900
C1532       C  0.71570112  0.76568012  0.47865149    -0.17400
H1533       H  0.71059652  0.76652093  0.59781092     0.20600
H1534       H  0.69780951  0.80307621  0.49034438     0.19000
H1535       H  0.68479959  0.81268429  0.60204584     0.18900
H1536       H  0.71898136  0.75656849  0.48662850     0.14800
C1537       C  0.73720634  0.79319750  0.06562355     0.30300
C1538       C  0.73831488  0.79472238  0.12389841    -0.36100
C1539       C  0.73287258  0.78476076  0.15484010     0.16200
C1540       C  0.72682756  0.77399195  0.13045082     0.22100
C1541       C  0.72529014  0.77249332  0.07195747    -0.34200
C1542       C  0.73062124  0.78249773  0.04085835     0.16100
O1543       O  0.74370332  0.80120354  0.02885723    -0.26200
C1544       C  0.74104887  0.79563284  0.97957919     0.05900
C1545       C  0.73260831  0.78396981  0.98454483    -0.31100
O1546       O  0.72349934  0.76582557  0.16779526    -0.22900
C1547       C  0.72724350  0.77148233  0.21674227    -0.02900
C1548       C  0.73316869  0.78329470  0.21089914    -0.17400
H1549       H  0.74377199  0.80305993  0.14374622     0.20600
H1550       H  0.72088273  0.76409146  0.05206529     0.19000
H1551       H  0.72989010  0.77737800  0.95186593     0.18900
H1552       H  0.73765267  0.78989108  0.24306088     0.14800
C1553       C  0.54264970  0.75482018  0.76604205     0.30300
C1554       C  0.54667849  0.76577077  0.74333155    -0.36100
C1555       C  0.57706817  0.77173250  0.75797357     0.16200
C1556       C  0.60241927  0.76716859  0.79148636     0.22100
C1557       C  0.59858402  0.75610726  0.81372213    -0.34200
C1558       C  0.56765296  0.75023681  0.80012889     0.16100
O1559       O  0.51455538  0.74834800  0.76249706    -0.26200
C1560       C  0.52132276  0.73951164  0.79507638     0.05900
C1561       C  0.55417056  0.74018407  0.81928994    -0.31100
O1562       O  0.62765999  0.77463426  0.80253866    -0.22900
C1563       C  0.61785674  0.78411031  0.77642151    -0.02900
C1564       C  0.58674104  0.78276121  0.74787338    -0.17400
H1565       H  0.52662156  0.76963620  0.71840589     0.20600
H1566       H  0.61750518  0.75258032  0.84186485     0.19000
H1567       H  0.56580581  0.73443448  0.84880552     0.18900
H1568       H  0.57278671  0.78912845  0.72439459     0.14800
C1569       C  0.86070447  0.75080871  0.82783662     0.30300
C1570       C  0.82996631  0.75531802  0.85163464    -0.36100
C1571       C  0.82065675  0.76648280  0.83573205     0.16200
C1572       C  0.84040124  0.77283013  0.79929297     0.22100
C1573       C  0.87065509  0.76818558  0.77425710    -0.34200
C1574       C  0.87988393  0.75697656  0.78993094     0.16100
O1575       O  0.87583393  0.74102067  0.84088559    -0.26200
C1576       C  0.90492885  0.74079795  0.81047452     0.05900
C1577       C  0.90870657  0.75048068  0.77760908    -0.31100
O1578       O  0.82916479  0.78357576  0.79558107    -0.22900
C1579       C  0.80153169  0.78405586  0.82935340    -0.02900
C1580       C  0.79483328  0.77362940  0.85498731    -0.17400
H1581       H  0.81519812  0.75065823  0.88239392     0.20600
H1582       H  0.88677456  0.77317543  0.74661193     0.19000
H1583       H  0.93048187  0.75276554  0.75130906     0.18900
H1584       H  0.77553773  0.77183301  0.88659263     0.14800
C1585       C  0.86668633  0.71458358  0.32423270     0.30300
C1586       C  0.85966716  0.72567285  0.34729771    -0.36100
C1587       C  0.82975798  0.73119433  0.32766753     0.16200
C1588       C  0.80834053  0.72623117  0.28767506     0.22100
C1589       C  0.81546829  0.71517431  0.26438029    -0.34200
C1590       C  0.84517650  0.70960438  0.28439832     0.16100
O1591       O  0.89141689  0.70745687  0.34008510    -0.26200
C1592       C  0.88561466  0.69774770  0.31020283     0.05900
C1593       C  0.85724866  0.69864296  0.27464461    -0.31100
O1594       O  0.78056962  0.73260585  0.27816718    -0.22900
C1595       C  0.78408569  0.74177454  0.31271813    -0.02900
C1596       C  0.81437195  0.74135074  0.34432388    -0.17400
H1597       H  0.87560097  0.72952852  0.37994474     0.20600
H1598       H  0.79826694  0.71100423  0.23439663     0.19000
H1599       H  0.84595149  0.69197177  0.24777884     0.18900
H1600       H  0.82320701  0.74741104  0.37649047     0.14800
C1601       C  0.94206080  0.68936407  0.54681401     0.30300
C1602       C  0.93919414  0.68794139  0.60448702    -0.36100
C1603       C  0.94624115  0.69772616  0.63822497     0.16200
C1604       C  0.95547729  0.70828340  0.61719120     0.22100
C1605       C  0.95844164  0.70972336  0.55900922    -0.34200
C1606       C  0.95142372  0.69984359  0.52493013     0.16100
O1607       O  0.93542690  0.68137421  0.50807448    -0.26200
C1608       C  0.94065059  0.68667960  0.46018291     0.05900
C1609       C  0.95078904  0.69822077  0.46804449    -0.31100
O1610       O  0.96075337  0.71623145  0.65730928    -0.22900
C1611       C  0.95494917  0.71059122  0.70442153    -0.02900
C1612       C  0.94565532  0.69907173  0.69460529    -0.17400
H1613       H  0.93168803  0.67975971  0.62190782     0.20600
H1614       H  0.96548966  0.71794640  0.54157492     0.19000
H1615       H  0.95571452  0.70460674  0.43676507     0.18900
H1616       H  0.93919115  0.69253728  0.72442544     0.14800
C1617       C  0.84130986  0.61929568  0.35290281     0.30300
C1618       C  0.83525652  0.63062112  0.37460254    -0.36100
C1619       C  0.85795466  0.63926497  0.35575844     0.16200
C1620       C  0.88457983  0.63679867  0.31847296     0.22100
C1621       C  0.89048733  0.62558494  0.29675546    -0.34200
C1622       C  0.86795675  0.61702080  0.31532952     0.16100
O1623       O  0.82408521  0.60980883  0.36548293    -0.26200
C1624       C  0.83997709  0.60142970  0.33535376     0.05900
C1625       C  0.86742668  0.60543782  0.30341214    -0.31100
O1626       O  0.90381866  0.64586203  0.30828860    -0.22900
C1627       C  0.88974865  0.65444232  0.33910623    -0.02900
C1628       C  0.86072020  0.65086209  0.36939680    -0.17400
H1629       H  0.81471779  0.63251343  0.40459817     0.20600
H1630       H  0.91167511  0.62364189  0.26801074     0.19000
H1631       H  0.88480249  0.60049944  0.27609419     0.18900
H1632       H  0.84507443  0.65592258  0.39885293     0.14800
C1633       C  0.65229748  0.72363860  0.27173414     0.30300
C1634       C  0.65085387  0.71198259  0.25381396    -0.36100
C1635       C  0.61870643  0.70645990  0.26041374     0.16200
C1636       C  0.58967513  0.71202417  0.28213619     0.22100
C1637       C  0.59113307  0.72369244  0.30019325    -0.34200
C1638       C  0.62348798  0.72917410  0.29449336     0.16100
O1639       O  0.68023433  0.73026005  0.27246664    -0.26200
C1640       C  0.66931435  0.74014194  0.29655483     0.05900
C1641       C  0.63420447  0.73996073  0.31103164    -0.31100
O1642       O  0.56238932  0.70510999  0.28479897    -0.22900
C1643       C  0.57429637  0.69494072  0.26524285    -0.02900
C1644       C  0.60917434  0.69531546  0.24939503    -0.17400
H1645       H  0.67344059  0.70745237  0.23717503     0.20600
H1646       H  0.56884794  0.72810947  0.31857267     0.19000
H1647       H  0.61908583  0.74667089  0.33233173     0.18900
H1648       H  0.62521643  0.68841425  0.23179197     0.14800
C1649       C  0.98356273  0.68706359  0.06156844     0.30300
C1650       C  0.97911118  0.68577904  0.00353171    -0.36100
C1651       C  0.97259100  0.69598829  0.97495530     0.16200
C1652       C  0.46992751  0.70688709  0.00160865     0.22100
C1653       C  0.47381505  0.70813142  0.05976128    -0.34200
C1654       C  0.48015644  0.69790598  0.08829672     0.16100
O1655       O  0.99203312  0.67880447  0.09593527    -0.26200
C1656       C  0.49399690  0.68438013  0.14534171     0.05900
C1657       C  0.48727535  0.69621230  0.14311127    -0.31100
O1658       O  0.46595057  0.71534982  0.96636471    -0.22900
C1659       C  0.96553561  0.70980732  0.91620534    -0.02900
C1660       C  0.96900896  0.69780961  0.91935035    -0.17400
H1661       H  0.98151323  0.67744512  0.98194808     0.20600
H1662       H  0.47297973  0.71652918  0.08106866     0.19000
H1663       H  0.48915910  0.70277690  0.17612635     0.18900
H1664       H  0.97035521  0.69131877  0.88595251     0.14800
C1665       C  0.58702789  0.63746686  0.23958872     0.30300
C1666       C  0.61634061  0.63022710  0.23763853    -0.36100
C1667       C  0.60976092  0.61827162  0.23771999     0.16200
C1668       C  0.57666476  0.61371740  0.24048077     0.22100
C1669       C  0.54734358  0.62094827  0.24182933    -0.34200
C1670       C  0.55393237  0.63289079  0.24064710     0.16100
O1671       O  0.58708003  0.64891781  0.24048649    -0.26200
C1672       C  0.55351163  0.65171208  0.24141953     0.05900
C1673       C  0.53179098  0.64205573  0.24077101    -0.31100
O1674       O  0.57656803  0.60227701  0.23889328    -0.22900
C1675       C  0.61003384  0.59948362  0.23442600    -0.02900
C1676       C  0.63183259  0.60907584  0.23348547    -0.17400
H1677       H  0.64244203  0.63366699  0.23567543     0.20600
H1678       H  0.52122175  0.61750569  0.24291982     0.19000
H1679       H  0.50368100  0.64187739  0.24195952     0.18900
H1680       H  0.65982009  0.60922949  0.22890183     0.14800
C1681       C  0.59507418  0.86487628  0.79687576     0.30300
C1682       C  0.61060182  0.85652069  0.82975751    -0.36100
C1683       C  0.61273899  0.84535241  0.80569900     0.16200
C1684       C  0.60057824  0.84253848  0.75296946     0.22100
C1685       C  0.58459594  0.85087661  0.72024218    -0.34200
C1686       C  0.58238338  0.86207488  0.74433064     0.16100
O1687       O  0.59173328  0.87596441  0.81019868    -0.26200
C1688       C  0.57650232  0.88030688  0.76576224     0.05900
C1689       C  0.56994370  0.87208271  0.72352999    -0.31100
O1690       O  0.60782313  0.83175506  0.73734896    -0.22900
C1691       C  0.62499027  0.82759899  0.78061473    -0.02900
C1692       C  0.62816521  0.83571109  0.82470301    -0.17400
H1693       H  0.62114610  0.85864578  0.87060609     0.20600
H1694       H  0.57542927  0.84885811  0.67840867     0.19000
H1695       H  0.55844267  0.87336229  0.68299217     0.18900
H1696       H  0.64099839  0.83494233  0.86446829     0.14800
C1697       C  0.63746174  0.94466826  0.44759606     0.30300
C1698       C  0.60464177  0.94200254  0.46956177    -0.36100
C1699       C  0.60439019  0.93473613  0.51542428     0.16200
C1700       C  0.63445510  0.93038385  0.53791395     0.22100
C1701       C  0.66731207  0.93300754  0.51573894    -0.34200
C1702       C  0.66754378  0.94032567  0.46997487     0.16100
O1703       O  0.64356941  0.95143413  0.40539791    -0.26200
C1704       C  0.67803883  0.95148420  0.40033407     0.05900
C1705       C  0.69439545  0.94471763  0.43961859    -0.31100
O1706       O  0.62840653  0.92448895  0.58320275    -0.22900
C1707       C  0.59407702  0.92505635  0.58989170    -0.02900
C1708       C  0.57766495  0.93126868  0.54874320    -0.17400
H1709       H  0.58100509  0.94555528  0.45277342     0.20600
H1710       H  0.69103014  0.92980108  0.53379057     0.19000
H1711       H  0.72193171  0.94321870  0.44464832     0.18900
H1712       H  0.55046594  0.93354949  0.54599798     0.14800
C1713       C  0.82664318  0.84171005  0.85870967     0.30300
C1714       C  0.85520274  0.84894305  0.84789287    -0.36100
C1715       C  0.84926031  0.86095113  0.85457420     0.16200
C1716       C  0.81729199  0.86550543  0.86983942     0.22100
C1717       C  0.78908089  0.85830598  0.88158316    -0.34200
C1718       C  0.79519667  0.84637102  0.87590106     0.16100
O1719       O  0.82574928  0.83024252  0.85387643    -0.26200
C1720       C  0.79335093  0.82759957  0.86892204     0.05900
C1721       C  0.77353008  0.83732036  0.88368502    -0.31100
O1722       O  0.81730180  0.87692495  0.87348089    -0.22900
C1723       C  0.84982664  0.87980124  0.86111225    -0.02900
C1724       C  0.87097761  0.87021741  0.84931258    -0.17400
H1725       H  0.88025094  0.84546927  0.83521597     0.20600
H1726       H  0.76405382  0.86177411  0.89445282     0.19000
H1727       H  0.74649677  0.83763418  0.89641944     0.18900
H1728       H  0.89841382  0.87011011  0.83912159     0.14800
C1729       C  0.82686592  0.92861437  0.12107811     0.30300
C1730       C  0.79831418  0.92701734  0.15672578    -0.36100
C1731       C  0.78572333  0.93697287  0.18498908     0.16200
C1732       C  0.80019478  0.94778630  0.17887513     0.22100
C1733       C  0.82919695  0.94935764  0.14388305    -0.34200
C1734       C  0.84183131  0.93937764  0.11545741     0.16100
O1735       O  0.83974554  0.92079548  0.08545474    -0.26200
C1736       C  0.86353536  0.92654211  0.05675618     0.05900
C1737       C  0.86623783  0.93812837  0.07406431    -0.31100
O1738       O  0.78320456  0.95595982  0.20761487    -0.22900
C1739       C  0.75763086  0.95028117  0.23268644    -0.02900
C1740       C  0.75801718  0.93843352  0.22002235    -0.17400
H1741       H  0.78584955  0.91867794  0.16033197     0.20600
H1742       H  0.84029838  0.95783059  0.13761856     0.19000
H1743       H  0.88113520  0.94490335  0.05478357     0.18900
H1744       H  0.74029474  0.93184817  0.23411407     0.14800
C1745       C  0.64878788  0.98365640  0.79421943     0.30300
C1746       C  0.61871143  0.97797713  0.81210859    -0.36100
C1747       C  0.61945288  0.96585492  0.80793303     0.16200
C1748       C  0.64803221  0.95970065  0.78847380     0.22100
C1749       C  0.67817981  0.96540708  0.77055115    -0.34200
C1750       C  0.67713959  0.97756643  0.77345473     0.16100
O1751       O  0.65419453  0.99491506  0.79693377    -0.26200
C1752       C  0.68600508  0.99613695  0.77597565     0.05900
C1753       C  0.70160906  0.98562975  0.76078976    -0.31100
O1754       O  0.64214723  0.94844303  0.78503592    -0.22900
C1755       C  0.60933605  0.94740839  0.80219749    -0.02900
C1756       C  0.59398042  0.95796217  0.81706393    -0.17400
H1757       H  0.59623607  0.98267744  0.82762437     0.20600
H1758       H  0.70068425  0.96069062  0.75441720     0.19000
H1759       H  0.72823640  0.98411894  0.74726180     0.18900
H1760       H  0.56730588  0.95962825  0.82912197     0.14800
C1761       C  0.80391991  0.98464013  0.85540057     0.30300
C1762       C  0.83226196  0.97766195  0.83935910    -0.36100
C1763       C  0.82746233  0.96570377  0.84361604     0.16200
C1764       C  0.79707593  0.96088897  0.86309579     0.22100
C1765       C  0.76865212  0.96789856  0.87927794    -0.34200
C1766       C  0.77339352  0.97989996  0.87461645     0.16100
O1767       O  0.80169386  0.99590065  0.84927042    -0.26200
C1768       C  0.76925659  0.99853491  0.86462224     0.05900
C1769       C  0.75060658  0.98887447  0.88166852    -0.31100
O1770       O  0.79895605  0.94948655  0.86555325    -0.22900
C1771       C  0.83083466  0.94700617  0.84672130    -0.02900
C1772       C  0.84960346  0.95676915  0.83228012    -0.17400
H1773       H  0.85610604  0.98129094  0.82338391     0.20600
H1774       H  0.74443575  0.96425676  0.89368779     0.19000
H1775       H  0.72333310  0.98826689  0.89220041     0.18900
H1776       H  0.87638706  0.95725693  0.81854937     0.14800
C1777       C  0.61964593  0.11475605  0.24193391     0.30300
C1778       C  0.64899678  0.12173855  0.23522557    -0.36100
C1779       C  0.64312688  0.13371141  0.23650134     0.16200
C1780       C  0.61079287  0.13862810  0.24515349     0.22100
C1781       C  0.58114743  0.13159932  0.25086222    -0.34200
C1782       C  0.58692579  0.11953318  0.24842571     0.16100
O1783       O  0.61937202  0.10333349  0.24141452    -0.26200
C1784       C  0.58597721  0.10066183  0.24695674     0.05900
C1785       C  0.56449677  0.11038969  0.25110784    -0.31100
O1786       O  0.61194499  0.15011690  0.24721705    -0.22900
C1787       C  0.64546383  0.15249873  0.23885191    -0.02900
C1788       C  0.66574970  0.14258458  0.23118242    -0.17400
H1789       H  0.67468596  0.11808249  0.22919243     0.20600
H1790       H  0.55546321  0.13525835  0.25674593     0.19000
H1791       H  0.53649731  0.11066066  0.25519919     0.18900
H1792       H  0.69354869  0.14204631  0.22448594     0.14800
C1793       C  0.63448273  0.99580287  0.27282869     0.30300
C1794       C  0.60718750  0.00296927  0.29171235    -0.36100
C1795       C  0.61094992  0.01480174  0.28198328     0.16200
C1796       C  0.63949726  0.01931960  0.25514890     0.22100
C1797       C  0.66675019  0.01209770  0.23571188    -0.34200
C1798       C  0.66298416  0.00021364  0.24555794     0.16100
O1799       O  0.63773558  0.98471234  0.28270872    -0.26200
C1800       C  0.66879264  0.98183963  0.26166083     0.05900
C1801       C  0.68533209  0.99113907  0.23673612    -0.31100
O1802       O  0.63688562  0.03062889  0.24894403    -0.22900
C1803       C  0.60628865  0.03335394  0.27226242    -0.02900
C1804       C  0.58915527  0.02383447  0.29363515    -0.17400
H1805       H  0.58486731  0.99957728  0.31356934     0.20600
H1806       H  0.68946439  0.01551555  0.21503129     0.19000
H1807       H  0.71120356  0.99147559  0.21902033     0.18900
H1808       H  0.56347208  0.02352179  0.31223349     0.14800
C1809       C  0.59532606  0.04186744  0.00286649     0.30300
C1810       C  0.60738764  0.03134184  0.97916588    -0.36100
C1811       C  0.63482521  0.03210769  0.94054251     0.16200
C1812       C  0.64909958  0.04251301  0.92538837     0.22100
C1813       C  0.63681003  0.05306248  0.94865215    -0.34200
C1814       C  0.60966922  0.05229207  0.98794336     0.16100
O1815       O  0.57327146  0.04301651  0.04515309    -0.26200
C1816       C  0.57342935  0.05431834  0.05769976     0.05900
C1817       C  0.59543874  0.06052073  0.02312628    -0.31100
O1818       O  0.67552984  0.04114710  0.89029792    -0.22900
C1819       C  0.67844186  0.02969565  0.88321153    -0.02900
C1820       C  0.65365192  0.02366156  0.91345773    -0.17400
H1821       H  0.59728020  0.02309004  0.99207512     0.20600
H1822       H  0.64863735  0.06125406  0.93873997     0.19000
H1823       H  0.60263200  0.06956307  0.02716972     0.18900
H1824       H  0.64986625  0.01440692  0.91552924     0.14800
C1825       C  0.83690831  0.13915464  0.36928590     0.30300
C1826       C  0.86571810  0.13166481  0.36745538    -0.36100
C1827       C  0.85844538  0.11984945  0.37407625     0.16200
C1828       C  0.82514234  0.11569517  0.38142950     0.22100
C1829       C  0.79655985  0.12318159  0.38447720    -0.34200
C1830       C  0.80385341  0.13494527  0.37830358     0.16100
O1831       O  0.83716996  0.15044756  0.36133656    -0.26200
C1832       C  0.80380533  0.15343773  0.36573772     0.05900
C1833       C  0.78211987  0.14414378  0.37683985    -0.31100
O1834       O  0.82400680  0.10431851  0.38407365    -0.22900
C1835       C  0.85705921  0.10111952  0.37903424    -0.02900
C1836       C  0.87971187  0.11040467  0.37316034    -0.17400
H1837       H  0.89182643  0.13478589  0.36033672     0.20600
H1838       H  0.77035000  0.12003029  0.39015925     0.19000
H1839       H  0.75410873  0.14416110  0.38112241     0.18900
H1840       H  0.90765171  0.11018062  0.36787596     0.14800
C1841       C  0.77195108  0.00114968  0.32387595     0.30300
C1842       C  0.77569241  0.01205787  0.30017706    -0.36100
C1843       C  0.79841669  0.01974162  0.32767325     0.16200
C1844       C  0.81639114  0.01679091  0.37492480     0.22100
C1845       C  0.81213294  0.00593809  0.39922921    -0.34200
C1846       C  0.78910144  0.99829113  0.37201377     0.16100
O1847       O  0.75248230  0.99265511  0.30435809    -0.26200
C1848       C  0.75656893  0.98427013  0.34065882     0.05900
C1849       C  0.77901615  0.98727346  0.38403910    -0.31100
O1850       O  0.83729430  0.02510494  0.39256200    -0.22900
C1851       C  0.83254655  0.03352846  0.35649761    -0.02900
C1852       C  0.80837517  0.03073964  0.31537025    -0.17400
H1853       H  0.76201871  0.01434335  0.26265854     0.20600
H1854       H  0.82599273  0.00360671  0.43648702     0.19000
H1855       H  0.78695003  0.98208804  0.41870363     0.18900
H1856       H  0.80001434  0.03592592  0.28096193     0.14800
C1857       C  0.79092610  0.04218119  0.68262119     0.30300
C1858       C  0.79972020  0.05299560  0.66108541    -0.36100
C1859       C  0.82703557  0.05299905  0.62181859     0.16200
C1860       C  0.84466857  0.04306140  0.60523342     0.22100
C1861       C  0.83567000  0.03224575  0.62635498    -0.34200
C1862       C  0.80815629  0.03223189  0.66511619     0.16100
O1863       O  0.76662646  0.04017728  0.72040194    -0.26200
C1864       C  0.76815815  0.02876662  0.72695918     0.05900
C1865       C  0.79329554  0.02338637  0.69301487    -0.31100
O1866       O  0.86753200  0.04489353  0.56514345    -0.22900
C1867       C  0.86450765  0.05614392  0.55555909    -0.02900
C1868       C  0.83969056  0.06162935  0.58970689    -0.17400
H1869       H  0.78588396  0.06082814  0.67342018     0.20600
H1870       H  0.84872465  0.02435478  0.61261811     0.19000
H1871       H  0.80038543  0.01431126  0.69094160     0.18900
H1872       H  0.83029592  0.07044456  0.58779310     0.14800
loop_ 
_geom_bond_atom_site_label_1 
_geom_bond_atom_site_label_2 
_geom_bond_distance 
_geom_bond_site_symmetry_2 
_ccdc_geom_bond_type 
O1            C4   1.269       .  A
O1           Cd6   2.474       .  S
C2           O11   1.264       .  A
C2            O7   1.268       .  A
C2          C931   1.469       .  S
O3            C9   1.270       .  A
O3           Cd6   2.472       .  S
C4           O12   1.267       .  A
C4           C17   1.475       .  S
C5           O10   1.273       .  A
C5            O8   1.260       .  A
C5          C915   1.468       .  S
Cd6          O13   2.444       .  S
Cd6          O12   2.486       .  S
Cd6          O11   2.453       .  S
Cd6           O7   2.470       .  S
Cd6          O10   2.523       .  S
Cd6           O8   2.402       .  S
C9           O13   1.266       .  A
C9          C899   1.467       .  S
O14          C17   1.272       .  A
O14        Cd955   2.490       .  S
C15          O24   1.261       .  A
C15          O20   1.265       .  A
C15         C880   1.471       .  S
O16          C22   1.269       .  A
O16         Cd19   2.486       .  S
C17         O961   1.267       .  A
C18          O23   1.266       .  A
C18          O21   1.262       .  A
C18         C867   1.474       .  S
Cd19         O26   2.473       .  S
Cd19         O25   2.459       .  S
Cd19         O24   2.462       .  S
Cd19         O20   2.494       .  S
Cd19         O23   2.509       .  S
Cd19         O21   2.457       .  S
Cd19        O950   2.492   1_455  S
C22          O26   1.265       .  A
C22         C848   1.475       .  S
O25         C953   1.267   1_455  A
C27          C28   1.534       .  S
C27          C33   1.534       .  S
C27          C31   1.549       .  S
C27         C928   1.512       .  S
C28          H35   1.087       .  S
C28          C29   1.366       .  D
C29          C30   1.542       .  S
C29         C832   1.486   1_545  S
C30          C34   1.544       .  S
C30          C32   1.524       .  S
C30          H36   1.108       .  S
C31          H37   1.085       .  S
C31          C32   1.369       .  D
C32         C816   1.468   1_545  S
C33          H38   1.086       .  S
C33          C34   1.365       .  D
C34         C883   1.485       .  S
O39          C42   1.271       .  A
O39         Cd44   2.458       .  S
C40          O49   1.262   1_554  A
C40          O45   1.264   1_554  A
C40         C800   1.470       .  S
O41          C47   1.265       .  A
O41         Cd44   2.493       .  S
C42          O50   1.267       .  A
C42          C55   1.470       .  S
C43          O48   1.268       .  A
C43          O46   1.264       .  A
C43         C787   1.473       .  S
Cd44         O51   2.443       .  S
Cd44         O50   2.466       .  S
Cd44         O49   2.463       .  S
Cd44         O45   2.487       .  S
Cd44         O48   2.493       .  S
Cd44         O46   2.474       .  S
C47          O51   1.262       .  A
C47         C835   1.470       .  S
O52          C55   1.272       .  A
O52        Cd993   2.482       .  S
C53          O62   1.262       .  A
C53          O58   1.273       .  A
C53         C771   1.466       .  S
O54          C60   1.267       .  A
O54         Cd57   2.474       .  S
C55         O999   1.266       .  A
C56          O61   1.269       .  A
C56          O59   1.266       .  A
C56         C752   1.462       .  S
Cd57         O64   2.443       .  S
Cd57         O63   2.440       .  S
Cd57         O62   2.400       .  S
Cd57         O58   2.498       .  S
Cd57         O61   2.453       .  S
Cd57         O59   2.427       .  S
Cd57        O988   2.481   1_455  S
C60          O64   1.265       .  A
C60         C819   1.468       .  S
O63         C991   1.266   1_455  A
C65          C66   1.524       .  S
C65          C71   1.535       .  S
C65          C69   1.548       .  S
C65         C768   1.509       .  S
C66          H73   1.086       .  S
C66          C67   1.364       .  D
C67          C68   1.547       .  S
C67         C803   1.483       .  S
C68          C72   1.543       .  S
C68          C70   1.531       .  S
C68          H74   1.110       .  S
C69          H75   1.086       .  S
C69          C70   1.372       .  D
C70         C912   1.474       .  S
C71          H76   1.086       .  S
C71          C72   1.364       .  D
C72         C864   1.488       .  S
C77          C78   1.540       .  S
C77          C83   1.522       .  S
C77          C81   1.524       .  S
C77         C736   1.513       .  S
C78          H85   1.086       .  S
C78          C79   1.369       .  D
C79          C80   1.541       .  S
C79         C720   1.482   1_455  S
C80          C82   1.555       .  S
C80        C1020   1.546   1_455  S
C80          H86   1.108       .  S
C81          H87   1.085       .  S
C81          C82   1.371       .  D
C82         C707   1.481       .  S
C83        H1024   1.087       .  S
C83        C1020   1.369   1_455  D
C84        C1016   1.547       .  S
C84        C1019   1.369       .  D
C84          C96   1.503       .  S
H88        C1019   1.087       .  S
C89          C90   1.537       .  S
C89          C95   1.520       .  S
C89          C93   1.528       .  S
C89         C691   1.519       .  S
C90          H97   1.086       .  S
C90          C91   1.371       .  D
C91          C92   1.543       .  S
C91         C672   1.483       .  S
C92          C96   1.550       .  S
C92          C94   1.554       .  S
C92          H98   1.109       .  S
C93          H99   1.086       .  S
C93          C94   1.374       .  D
C94         C656   1.483       .  S
C95         H100   1.085       .  S
C95          C96   1.364       .  D
C101        C102   1.533       .  S
C101        C107   1.533       .  S
C101       C1041   1.532       .  S
C101        C723   1.512       .  S
C102        H109   1.081       .  S
C102        C103   1.368       .  D
C103        C104   1.543       .  S
C103        C675   1.486       .  S
C104        C108   1.544       .  S
C104        C106   1.542       .  S
C104        H110   1.110       .  S
C105       C1037   1.533       .  S
C105        H111   1.085   1_655  S
C105       C1042   1.366       .  D
C106       C1041   1.366       .  D
C106       C1560   1.479       .  S
C107        H112   1.086       .  S
C107        C108   1.366       .  D
C108        C640   1.480       .  S
C113        C114   1.536       .  S
C113        C119   1.519       .  S
C113        C117   1.533       .  S
C113        C784   1.513       .  S
C114        H121   1.086       .  S
C114        C115   1.366       .  D
C115        C116   1.542       .  S
C115        C608   1.482       .  S
C116        C120   1.543       .  S
C116        C118   1.550       .  S
C116        H122   1.109       .  S
C117        H123   1.086       .  S
C117        C118   1.374       .  D
C118        C643   1.477       .  S
C119        H124   1.087       .  S
C119        C120   1.365       .  D
C120        C132   1.491       .  S
C125        C126   1.541       .  S
C125        C131   1.525       .  S
C125        C129   1.523       .  S
C125        C755   1.512       .  S
C126        H133   1.085       .  S
C126        C127   1.369       .  D
C127        C128   1.539       .  S
C127        C592   1.478       .  S
C128        C132   1.543       .  S
C128        C130   1.547       .  S
C128        H134   1.111       .  S
C129        H135   1.086       .  S
C129        C130   1.369       .  D
C130        C627   1.474       .  S
C131        H136   1.084       .  S
C131        C132   1.364       .  D
C137        C138   1.527       .  S
C137        C143   1.534       .  S
C137        C141   1.532       .  S
C137        C595   1.506       .  S
C138        H145   1.084       .  S
C138        C139   1.369       .  D
C139        C140   1.551       .  S
C139        C611   1.485       .  S
C140        C144   1.544       .  S
C140        C142   1.542       .  S
C140        H146   1.111       .  S
C141        H147   1.086       .  S
C141        C142   1.365       .  D
C142        C704   1.479       .  S
C143        H148   1.085       .  S
C143        C144   1.367       .  D
C144        C659   1.486       .  S
C149        C150   1.530       .  S
C149        C155   1.516       .  S
C149        C153   1.536       .  S
C149        C576   1.510       .  S
C150        H157   1.086       .  S
C150        C151   1.374       .  D
C151        C152   1.553       .  S
C151        C544   1.478       .  S
C152        C156   1.548       .  S
C152        C154   1.542       .  S
C152        H158   1.110       .  S
C153        H159   1.085       .  S
C153        C154   1.369       .  D
C154        C560   1.487       .  S
C155        H160   1.088       .  S
C155        C156   1.361       .  D
C156        C168   1.490       .  S
C161        C162   1.527       .  S
C161        C167   1.524       .  S
C161        C165   1.535       .  S
C161        C531   1.515       .  S
C162        H169   1.086       .  S
C162        C163   1.369       .  D
C163        C164   1.544       .  S
C163        C496   1.464       .  S
C164        C166   1.547       .  S
C164       C1104   1.540   1_455  S
C164        H170   1.111   1_455  S
C165        H171   1.085       .  S
C165        C166   1.372       .  D
C166        C515   1.488   1_455  S
C167        H172   1.086       .  S
C167       C1104   1.366   1_455  D
C168       C1100   1.541       .  S
C168       C1103   1.366       .  D
C173        C174   1.536       .  S
C173        C179   1.537       .  S
C173        C177   1.536       .  S
C173        C563   1.512       .  S
C174       H1117   1.085       .  S
C174       C1111   1.366       .  D
C175       C1112   1.540   1_455  S
C175       C1110   1.366       .  D
C175        C483   1.483       .  S
C176        C180   1.546       .  S
C176        C178   1.540       .  S
C176       C1111   1.540       .  S
C176        H182   1.109       .  S
C177        H183   1.086       .  S
C177        C178   1.365       .  D
C178        C467   1.479       .  S
C179        H184   1.086       .  S
C179        C180   1.370       .  D
C180        C512   1.487       .  S
H181       C1110   1.085       .  S
C185        C186   1.530       .  S
C185        C191   1.518       .  S
C185        C189   1.535       .  S
C185        C851   1.515       .  S
C186        H193   1.085       .  S
C186        C187   1.375       .  D
C187        C188   1.552       .  S
C187        C480   1.482       .  S
C188        C192   1.548       .  S
C188        C190   1.542       .  S
C188        H194   1.111       .  S
C189        H195   1.085       .  S
C189        C190   1.369       .  D
C190        C451   1.484       .  S
C191        H196   1.086       .  S
C191        C192   1.366       .  D
C192        C204   1.499       .  S
C197        C198   1.521       .  S
C197        C203   1.518       .  S
C197        C201   1.531       .  S
C197        C896   1.506       .  S
C198        H205   1.085       .  S
C198        C199   1.373       .  D
C199        C200   1.558       .  S
C199        C464   1.482       .  S
C200        C204   1.551       .  S
C200        C202   1.544       .  S
C200        H206   1.110       .  S
C201        H207   1.087       .  S
C201        C202   1.365       .  D
C202        C432   1.478       .  S
C203        H208   1.087       .  S
C203        C204   1.368       .  D
C209        C210   1.537       .  S
C209        C215   1.536       .  S
C209        C213   1.542       .  S
C209        C448   1.510       .  S
C210        H217   1.086       .  S
C210        C211   1.364       .  D
C211        C212   1.539       .  S
C211        C547   1.481       .  S
C212        C216   1.537       .  S
C212        C214   1.540       .  S
C212        H218   1.106       .  S
C213        H219   1.086       .  S
C213        C214   1.368       .  D
C214        C499   1.480       .  S
C215        H220   1.084       .  S
C215        C216   1.368       .  D
C216        C435   1.484       .  S
O221        C224   1.271       .  A
O221       Cd226   2.464       .  S
C222        O231   1.261       .  A
C222        O227   1.265       .  A
C222        C416   1.472       .  S
O223        C229   1.269       .  A
O223       Cd226   2.476       .  S
C224        O232   1.268       .  A
C224        C235   1.474       .  S
C225        O230   1.265       .  A
C225        O228   1.262       .  A
C225        C400   1.470       .  S
Cd226       O233   2.459       .  S
Cd226       O232   2.476       .  S
Cd226       O231   2.466       .  S
Cd226       O227   2.498       .  S
Cd226       O230   2.494       .  S
Cd226       O228   2.445       .  S
C229        O233   1.264       .  A
C229        C579   1.469       .  S
O234        C237   1.277       .  A
O234       Cd239   2.497       .  S
C235        O244   1.266       .  A
C235        O240   1.274       .  A
O236        C242   1.275       .  A
O236       Cd239   2.463       .  S
C237        O245   1.266       .  A
C237        C387   1.471       .  S
C238        O243   1.272       .  A
C238        O241   1.267       .  A
C238        C528   1.472       .  S
Cd239       O246   2.411       .  S
Cd239       O245   2.389       .  S
Cd239       O244   2.440       .  S
Cd239       O240   2.494       .  S
Cd239       O243   2.474       .  S
Cd239       O241   2.439       .  S
C242        O246   1.266       .  A
C242        C371   1.463       .  S
C247        C253   1.522       .  S
C247        C251   1.554       .  S
C247       C1184   1.528       .  S
C247       C1320   1.508       .  S
C248       C1183   1.528   1_455  S
C248        H255   1.087       .  S
C248        C249   1.362       .  D
C249       C1186   1.543   1_455  S
C249        C336   1.483       .  S
C250        C254   1.544       .  S
C250        C252   1.537       .  S
C250       C1185   1.543       .  S
C250        H256   1.105       .  S
C251        H257   1.085       .  S
C251        C252   1.378       .  D
C252        C352   1.487       .  S
C253        H258   1.086       .  S
C253        C254   1.361       .  D
C254        C419   1.482       .  S
O259        C262   1.272       .  A
O259       Cd264   2.482       .  S
C260        O269   1.266       .  A
C260        O265   1.275       .  A
C260        C320   1.467       .  S
O261        C267   1.274       .  A
O261       Cd264   2.511       .  S
C262        O270   1.266       .  A
C262        C275   1.471       .  S
C263        O268   1.273       .  A
C263        O266   1.266       .  A
C263        C688   1.474       .  S
Cd264       O271   2.408       .  S
Cd264       O270   2.444       .  S
Cd264       O269   2.404       .  S
Cd264       O265   2.479       .  S
Cd264       O268   2.474       .  S
Cd264       O266   2.451       .  S
C267        O271   1.263       .  A
C267        C355   1.470       .  S
O272        C275   1.270       .  A
O272       Cd277   2.474       .  S
C273        O282   1.263       .  A
C273        O278   1.263       .  A
C273        C307   1.473       .  S
O274        C280   1.266       .  A
O274       Cd277   2.481       .  S
C275        O283   1.266       .  A
C276        O281   1.268       .  A
C276        O279   1.265       .  A
C276        C739   1.470       .  S
Cd277       O284   2.429       .  S
Cd277       O283   2.471       .  S
Cd277       O282   2.479       .  S
Cd277       O278   2.484       .  S
Cd277       O281   2.488       .  S
Cd277       O279   2.443       .  S
C280        O284   1.264       .  A
C280        C339   1.467       .  S
C285        C286   1.526       .  S
C285        C291   1.533       .  S
C285        C289   1.552       .  S
C285        C323   1.509       .  S
C286        H293   1.086       .  S
C286        C287   1.364       .  D
C287        C288   1.548       .  S
C287       C1240   1.485       .  S
C288        C292   1.543       .  S
C288        C290   1.531       .  S
C288        H294   1.108       .  S
C289        H295   1.085       .  S
C289        C290   1.373       .  D
C290       C1304   1.477       .  S
C291        H296   1.086       .  S
C291        C292   1.362       .  D
C292        C403   1.488       .  S
C297        C302   1.379       .  A
C297        C298   1.405       .  A
C297       O1239   1.320       .  A
C298        C299   1.404       .  A
C298        H309   1.082       .  S
C299        C308   1.364       .  A
C299        C300   1.380       .  A
C300        C301   1.406       .  A
C300        O306   1.320   1_556  A
C301        C302   1.405       .  A
C301        H310   1.082       .  S
C302        C305   1.364       .  A
O303       C1233   1.319       .  A
O303       C1240   1.332       .  A
C304       C1223   1.485   1_455  S
C304        C305   1.394       .  A
C304       O1239   1.333       .  A
C305        H311   1.082       .  S
O306        C307   1.332       .  A
C307        C308   1.393   1_554  A
C308        H312   1.082   1_556  S
C313        C318   1.380       .  A
C313        C314   1.405       .  A
C313        O319   1.316       .  A
C314        C315   1.402       .  A
C314        H325   1.082       .  S
C315        C324   1.365       .  A
C315        C316   1.379       .  A
C316        C317   1.403       .  A
C316        O322   1.314       .  A
C317        C318   1.401       .  A
C317        H326   1.082       .  S
C318        C321   1.364       .  A
O319        C320   1.331       .  A
C320        C321   1.390       .  A
C321        H327   1.082       .  S
O322        C323   1.332       .  A
C323        C324   1.392       .  A
C324        H328   1.082       .  S
C329        C334   1.379       .  A
C329        C330   1.399       .  A
C329        O335   1.315       .  A
C330        C331   1.398       .  A
C330        H341   1.082       .  S
C331        C340   1.357       .  A
C331        C332   1.380       .  A
C332        C333   1.407       .  A
C332        O338   1.322       .  A
C333        C334   1.407       .  A
C333        H342   1.082       .  S
C334        C337   1.366       .  A
O335        C336   1.331       .  A
C336        C337   1.395       .  A
C337        H343   1.080   1_455  S
O338        C339   1.333       .  A
C339        C340   1.389       .  A
C340        H344   1.083       .  S
C345        C350   1.379       .  A
C345        C346   1.404       .  A
C345        O351   1.324       .  A
C346        C347   1.406       .  A
C346        H357   1.082       .  S
C347        C356   1.359       .  A
C347        C348   1.381       .  A
C348        C349   1.401       .  A
C348        O354   1.323       .  A
C349        C350   1.404       .  A
C349        H358   1.082       .  S
C350        C353   1.354       .  A
O351        C352   1.333       .  A
C352        C353   1.396       .  A
C353        H359   1.080       .  S
O354        C355   1.330       .  A
C355        C356   1.392       .  A
C356        H360   1.083       .  S
C361        C366   1.379       .  A
C361        C362   1.398       .  A
C361        O367   1.309       .  A
C362        C363   1.395       .  A
C362        H373   1.082       .  S
C363        C372   1.360       .  A
C363        C364   1.380       .  A
C364        C365   1.408       .  A
C364        O370   1.318       .  A
C365        C366   1.405       .  A
C365        H374   1.082       .  S
C366        C369   1.370       .  A
O367        C368   1.328       .  A
C368       C1226   1.476       .  S
C368        C369   1.395       .  A
C369        H375   1.082       .  S
O370        C371   1.333       .  A
C371        C372   1.386       .  A
C372        H376   1.083       .  S
C377        C382   1.381       .  A
C377        C378   1.402       .  A
C377        O383   1.323   1_455  A
C378        C379   1.404       .  A
C378        H389   1.083   1_455  S
C379        C388   1.357       .  A
C379        C380   1.381       .  A
C380        C381   1.402       .  A
C380        O386   1.323       .  A
C381        C382   1.404       .  A
C381        H390   1.083       .  S
C382        C385   1.356       .  A
O383        C384   1.331   1_655  A
C384       C1183   1.508   1_455  S
C384        C385   1.394       .  A
C385        H391   1.083       .  S
O386        C387   1.331       .  A
C387        C388   1.392       .  A
C388        H392   1.083       .  S
C393        C398   1.380       .  A
C393        C394   1.407       .  A
C393        O399   1.321       .  A
C394        C395   1.406       .  A
C394        H405   1.083       .  S
C395        C404   1.366       .  A
C395        C396   1.378       .  A
C396        C397   1.401       .  A
C396        O402   1.314       .  A
C397        C398   1.399       .  A
C397        H406   1.083       .  S
C398        C401   1.358       .  A
O399        C400   1.333       .  A
C400        C401   1.390       .  A
C401        H407   1.083       .  S
O402        C403   1.332       .  A
C403        C404   1.396       .  A
C404        H408   1.081       .  S
C409        C414   1.380       .  A
C409        C410   1.404       .  A
C409        O415   1.319       .  A
C410        C411   1.403       .  A
C410        H421   1.082       .  S
C411        C420   1.360       .  A
C411        C412   1.379       .  A
C412        C413   1.404       .  A
C412        O418   1.320       .  A
C413        C414   1.405       .  A
C413        H422   1.082       .  S
C414        C417   1.363       .  A
O415        C416   1.332   1_554  A
C416        C417   1.392   1_556  A
C417        H423   1.082   1_554  S
O418        C419   1.331       .  A
C419        C420   1.395       .  A
C420        H424   1.082       .  S
C425        C430   1.380       .  A
C425        C426   1.401       .  A
C425        O431   1.314       .  A
C426        C427   1.399       .  A
C426        H437   1.081       .  S
C427        C436   1.359       .  A
C427        C428   1.379       .  A
C428        C429   1.408       .  A
C428        O434   1.321       .  A
C429        C430   1.407       .  A
C429        H438   1.082       .  S
C430        C433   1.369       .  A
O431        C432   1.330       .  A
C432        C433   1.393       .  A
C433        H439   1.082       .  S
O434        C435   1.334       .  A
C435        C436   1.392       .  A
C436        H440   1.081       .  S
C441        C446   1.380       .  A
C441        C442   1.403       .  A
C441        O447   1.319       .  A
C442        C443   1.403   1_556  A
C442        H453   1.082       .  S
C443        C452   1.360       .  A
C443        C444   1.379       .  A
C444        C445   1.405       .  A
C444        O450   1.320       .  A
C445        C446   1.404   1_554  A
C445        H454   1.082       .  S
C446        C449   1.363       .  A
O447        C448   1.332       .  A
C448        C449   1.393       .  A
C449        H455   1.082       .  S
O450        C451   1.332       .  A
C451        C452   1.395       .  A
C452        H456   1.082       .  S
C457        C462   1.380       .  A
C457        C458   1.408       .  A
C457        O463   1.326       .  A
C458        C459   1.409       .  A
C458        H469   1.082       .  S
C459        C468   1.366       .  A
C459        C460   1.380       .  A
C460        C461   1.398       .  A
C460        O466   1.317       .  A
C461        C462   1.399       .  A
C461        H470   1.082       .  S
C462        C465   1.353       .  A
O463        C464   1.334       .  A
C464        C465   1.391       .  A
C465        H471   1.082       .  S
O466        C467   1.328       .  A
C467        C468   1.396       .  A
C468        H472   1.082       .  S
C473        C478   1.380       .  A
C473        C474   1.406       .  A
C473        O479   1.323       .  A
C474        C475   1.406       .  A
C474        H485   1.082       .  S
C475        C484   1.364       .  A
C475        C476   1.380       .  A
C476        C477   1.403       .  A
C476        O482   1.320       .  A
C477        C478   1.403       .  A
C477        H486   1.082       .  S
C478        C481   1.360       .  A
O479        C480   1.333       .  A
C480        C481   1.392       .  A
C481        H487   1.082       .  S
O482        C483   1.331       .  A
C483        C484   1.395       .  A
C484        H488   1.082       .  S
C489        C494   1.382       .  A
C489        C490   1.394       .  A
C489        O495   1.312       .  A
C490        C491   1.394       .  A
C490        H501   1.083       .  S
C491        C500   1.350       .  A
C491        C492   1.378       .  A
C492        C493   1.409       .  A
C492        O498   1.323       .  A
C493        C494   1.409       .  A
C493        H502   1.082       .  S
C494        C497   1.368       .  A
O495        C496   1.325       .  A
C496        C497   1.392       .  A
C497        H503   1.082       .  S
O498        C499   1.335       .  A
C499        C500   1.389       .  A
C500        H504   1.080       .  S
C505        C506   1.402       .  A
C505       C1446   1.379       .  A
C505        O511   1.319       .  A
C506        C507   1.402       .  A
C506        H517   1.082       .  S
C507        C516   1.359       .  A
C507       C1444   1.379       .  A
C508        C509   1.408       .  A
C508       C1443   1.379       .  A
C508        O514   1.324       .  A
C509        C510   1.408       .  A
C509        H518   1.082       .  S
C510        C513   1.367       .  A
C510       C1441   1.379       .  A
O511        C512   1.332       .  A
C512       C1449   1.396       .  A
C513       C1448   1.396       .  A
C513        H519   1.081       .  S
O514        C515   1.334       .  A
C515       C1452   1.394       .  A
C516       C1451   1.394       .  A
C516        H520   1.081       .  S
C521        C526   1.380       .  A
C521        C522   1.408       .  A
C521        O527   1.320       .  A
C522        C523   1.406       .  A
C522        H533   1.082       .  S
C523        C532   1.370       .  A
C523        C524   1.379       .  A
C524        C525   1.402       .  A
C524        O530   1.314       .  A
C525        C526   1.400       .  A
C525        H534   1.082       .  S
C526        C529   1.363       .  A
O527        C528   1.333       .  A
C528        C529   1.390       .  A
C529        H535   1.083       .  S
O530        C531   1.332       .  A
C531        C532   1.395       .  A
C532        H536   1.082       .  S
C537        C542   1.380       .  A
C537        C538   1.403       .  A
C537        O543   1.318       .  A
C538        C539   1.402       .  A
C538        H549   1.082       .  S
C539        C548   1.361       .  A
C539        C540   1.380       .  A
C540        C541   1.406       .  A
C540        O546   1.321       .  A
C541        C542   1.405       .  A
C541        H550   1.082       .  S
C542        C545   1.365       .  A
O543        C544   1.331       .  A
C544        C545   1.393       .  A
C545        H551   1.082       .  S
O546        C547   1.333       .  A
C547        C548   1.392       .  A
C548        H552   1.081       .  S
C553        C558   1.379   1_556  A
C553        C554   1.406       .  A
C553        O559   1.322       .  A
C554        C555   1.406   1_556  A
C554        H565   1.082       .  S
C555        C564   1.362       .  A
C555        C556   1.380       .  A
C556        C557   1.403       .  A
C556        O562   1.321       .  A
C557        C558   1.404       .  A
C557        H566   1.082       .  S
C558        C561   1.360   1_554  A
O559        C560   1.333       .  A
C560        C561   1.395       .  A
C561        H567   1.082       .  S
O562        C563   1.332       .  A
C563        C564   1.394       .  A
C564        H568   1.082       .  S
C569        C574   1.380       .  A
C569        C570   1.408       .  A
C569        O575   1.326       .  A
C570        C571   1.409       .  A
C570        H581   1.082       .  S
C571        C580   1.365       .  A
C571        C572   1.381       .  A
C572        C573   1.398       .  A
C572        O578   1.317       .  A
C573        C574   1.399       .  A
C573        H582   1.082       .  S
C574        C577   1.351       .  A
O575        C576   1.333       .  A
C576        C577   1.392       .  A
C577        H583   1.083       .  S
O578        C579   1.328       .  A
C579        C580   1.394       .  A
C580        H584   1.082       .  S
C585        C590   1.380       .  A
C585        C586   1.400       .  A
C585        O591   1.316       .  A
C586        C587   1.399       .  A
C586        H597   1.082       .  S
C587        C596   1.357       .  A
C587        C588   1.380       .  A
C588        C589   1.405       .  A
C588        O594   1.320       .  A
C589        C590   1.405       .  A
C589        H598   1.082       .  S
C590        C593   1.363       .  A
O591        C592   1.329       .  A
C592        C593   1.395       .  A
C593        H599   1.082       .  S
O594        C595   1.333       .  A
C595        C596   1.390       .  A
C596        H600   1.082       .  S
C601        C606   1.379       .  A
C601        C602   1.401       .  A
C601        O607   1.317       .  A
C602        C603   1.401       .  A
C602        H613   1.083       .  S
C603        C612   1.356       .  A
C603        C604   1.379       .  A
C604        C605   1.407       .  A
C604        O610   1.323       .  A
C605        C606   1.407       .  A
C605        H614   1.082       .  S
C606        C609   1.365   1_554  A
O607        C608   1.331   1_554  A
C608        C609   1.394       .  A
C609        H615   1.081       .  S
O610        C611   1.333       .  A
C611        C612   1.394       .  A
C612        H616   1.082       .  S
C617        C622   1.380       .  A
C617        C618   1.399       .  A
C617        O623   1.317       .  A
C618        C619   1.399       .  A
C618        H629   1.082       .  S
C619        C628   1.355       .  A
C619        C620   1.381       .  A
C620        C621   1.405       .  A
C620        O626   1.323       .  A
C621        C622   1.406       .  A
C621        H630   1.082       .  S
C622        C625   1.362       .  A
O623        C624   1.328       .  A
C624       C1042   1.479   1_455  S
C624        C625   1.396       .  A
C625        H631   1.082       .  S
O626        C627   1.331       .  A
C627        C628   1.389       .  A
C628        H632   1.083       .  S
C633        C638   1.380       .  A
C633        C634   1.403       .  A
C633        O639   1.318       .  A
C634        C635   1.402       .  A
C634        H645   1.083       .  S
C635        C644   1.361       .  A
C635        C636   1.380       .  A
C636        C637   1.405       .  A
C636        O642   1.320       .  A
C637        C638   1.404       .  A
C637        H646   1.082       .  S
C638        C641   1.365       .  A
O639        C640   1.331       .  A
C640        C641   1.393       .  A
C641        H647   1.082       .  S
O642        C643   1.332       .  A
C643        C644   1.391       .  A
C644        H648   1.081       .  S
C649        C654   1.380       .  A
C649        C650   1.405       .  A
C649        O655   1.322       .  A
C650        C651   1.406       .  A
C650        H661   1.082       .  S
C651        C660   1.362       .  A
C651        C652   1.380       .  A
C652        C653   1.405       .  A
C652        O658   1.322       .  A
C653        C654   1.405       .  A
C653        H662   1.083       .  S
C654        C657   1.362       .  A
O655        C656   1.332       .  A
C656        C657   1.394       .  A
C657        H663   1.082       .  S
O658        C659   1.332       .  A
C659        C660   1.395       .  A
C660        H664   1.082       .  S
C665        C670   1.380       .  A
C665        C666   1.397       .  A
C665        O671   1.315       .  A
C666        C667   1.397       .  A
C666        H677   1.082       .  S
C667        C676   1.353       .  A
C667        C668   1.378       .  A
C668        C669   1.410       .  A
C668        O674   1.326       .  A
C669        C670   1.410       .  A
C669        H678   1.082       .  S
C670        C673   1.368       .  A
O671        C672   1.329       .  A
C672        C673   1.397       .  A
C673        H679   1.082       .  S
O674        C675   1.335       .  A
C675        C676   1.392       .  A
C676        H680   1.081       .  S
C681        C686   1.379       .  A
C681        C682   1.412       .  A
C681        O687   1.322       .  A
C682        C683   1.409       .  A
C682        H693   1.082       .  S
C683        C692   1.374       .  A
C683        C684   1.378       .  A
C684        C685   1.400       .  A
C684        O690   1.311       .  A
C685        C686   1.397       .  A
C685        H694   1.082       .  S
C686        C689   1.361       .  A
O687        C688   1.335       .  A
C688        C689   1.388       .  A
C689        H695   1.083       .  S
O690        C691   1.331       .  A
C691        C692   1.397       .  A
C692        H696   1.082       .  S
C697        C702   1.380       .  A
C697        C698   1.403       .  A
C697        O703   1.320       .  A
C698        C699   1.403       .  A
C698        H709   1.082       .  S
C699        C708   1.358       .  A
C699        C700   1.380       .  A
C700        C701   1.404       .  A
C700        O706   1.322       .  A
C701        C702   1.405       .  A
C701        H710   1.082       .  S
C702        C705   1.361       .  A
O703        C704   1.330       .  A
C704        C705   1.393       .  A
C705        H711   1.082       .  S
O706        C707   1.331       .  A
C707        C708   1.394       .  A
C708        H712   1.082       .  S
C713        C714   1.403       .  A
C713       C1654   1.379       .  A
C713        O719   1.319       .  A
C714        C715   1.403   1_554  A
C714        H725   1.083   1_554  S
C715        C724   1.360       .  A
C715       C1652   1.378   1_556  A
C716        C717   1.403       .  A
C716       C1651   1.378   1_554  A
C716        O722   1.318   1_554  A
C717        C718   1.403       .  A
C717        H726   1.083       .  S
C718        C721   1.361       .  A
C718       C1649   1.379       .  A
O719       C1656   1.332       .  A
C720        C721   1.393       .  A
C720       O1655   1.332       .  A
C721        H727   1.082       .  S
O722       C1659   1.332       .  A
C723        C724   1.396       .  A
C723       O1658   1.332       .  A
C724        H728   1.081       .  S
C729        C734   1.380       .  A
C729        C730   1.404       .  A
C729        O735   1.322       .  A
C730        C731   1.404       .  A
C730        H741   1.082       .  S
C731        C740   1.360       .  A
C731        C732   1.381       .  A
C732        C733   1.404       .  A
C732        O738   1.321       .  A
C733        C734   1.404       .  A
C733        H742   1.082       .  S
C734        C737   1.359       .  A
O735        C736   1.332       .  A
C736        C737   1.395       .  A
C737        H743   1.083       .  S
O738        C739   1.331       .  A
C739        C740   1.391       .  A
C740        H744   1.082       .  S
C745        C750   1.381       .  A
C745        C746   1.399       .  A
C745        O751   1.317       .  A
C746        C747   1.399       .  A
C746        H757   1.082       .  S
C747        C756   1.353       .  A
C747        C748   1.378       .  A
C748        C749   1.403       .  A
C748        O754   1.319       .  A
C749        C750   1.403       .  A
C749        H758   1.082       .  S
C750        C753   1.359       .  A
O751        C752   1.328       .  A
C752        C753   1.391       .  A
C753        H759   1.083       .  S
O754        C755   1.332       .  A
C755        C756   1.396       .  A
C756        H760   1.081       .  S
C761        C766   1.379       .  A
C761        C762   1.403       .  A
C761        O767   1.314       .  A
C762        C763   1.400       .  A
C762        H773   1.082       .  S
C763        C772   1.365       .  A
C763        C764   1.380       .  A
C764        C765   1.405       .  A
C764        O770   1.316       .  A
C765        C766   1.402       .  A
C765        H774   1.082       .  S
C766        C769   1.366       .  A
O767        C768   1.332       .  A
C768        C769   1.393       .  A
C769        H775   1.082       .  S
O770        C771   1.332       .  A
C771        C772   1.389       .  A
C772        H776   1.082       .  S
C777        C782   1.380       .  A
C777        C778   1.408       .  A
C777        O783   1.326       .  A
C778        C779   1.409       .  A
C778        H789   1.082       .  S
C779        C788   1.366       .  A
C779        C780   1.381       .  A
C780        C781   1.400       .  A
C780        O786   1.319       .  A
C781        C782   1.401       .  A
C781        H790   1.082       .  S
C782        C785   1.354       .  A
O783        C784   1.334       .  A
C784        C785   1.393       .  A
C785        H791   1.083       .  S
O786        C787   1.329       .  A
C787        C788   1.394       .  A
C788        H792   1.082       .  S
C793        C798   1.380       .  A
C793        C794   1.402       .  A
C793        O799   1.318       .  A
C794        C795   1.402       .  A
C794        H805   1.082       .  S
C795        C804   1.359       .  A
C795        C796   1.379       .  A
C796        C797   1.406       .  A
C796        O802   1.322       .  A
C797        C798   1.406       .  A
C797        H806   1.082       .  S
C798        C801   1.365       .  A
O799        C800   1.330       .  A
C800        C801   1.393       .  A
C801        H807   1.082       .  S
O802        C803   1.332       .  A
C803        C804   1.393       .  A
C804        H808   1.082       .  S
C809        C814   1.380       .  A
C809        C810   1.402       .  A
C809        O815   1.317       .  A
C810        C811   1.401       .  A
C810        H821   1.079       .  S
C811        C820   1.360       .  A
C811        C812   1.380       .  A
C812        C813   1.406       .  A
C812        O818   1.320       .  A
C813        C814   1.405       .  A
C813        H822   1.086       .  S
C814        C817   1.364       .  A
O815        C816   1.329       .  A
C816        C817   1.391       .  A
C817        H823   1.085       .  S
O818        C819   1.332       .  A
C819        C820   1.390       .  A
C820        H824   1.080       .  S
C825        C830   1.379       .  A
C825        C826   1.401       .  A
C825        O831   1.316       .  A
C826        C827   1.400       .  A
C826        H837   1.082       .  S
C827        C836   1.358       .  A
C827        C828   1.380       .  A
C828        C829   1.406       .  A
C828        O834   1.322       .  A
C829        C830   1.405       .  A
C829        H838   1.082       .  S
C830        C833   1.363       .  A
O831        C832   1.332       .  A
C832        C833   1.396       .  A
C833        H839   1.081       .  S
O834        C835   1.332       .  A
C835        C836   1.391       .  A
C836        H840   1.082       .  S
C841        C846   1.381       .  A
C841        C842   1.400       .  A
C841        O847   1.319       .  A
C842        C843   1.401       .  A
C842        H853   1.082       .  S
C843        C852   1.354       .  A
C843        C844   1.380       .  A
C844        C845   1.409       .  A
C844        O850   1.327       .  A
C845        C846   1.410       .  A
C845        H854   1.082       .  S
C846        C849   1.367       .  A
O847        C848   1.329       .  A
C848        C849   1.395       .  A
C849        H855   1.082       .  S
O850        C851   1.335       .  A
C851        C852   1.393       .  A
C852        H856   1.083       .  S
C857        C862   1.378   1_565  A
C857        C858   1.401   1_565  A
C857        O863   1.315       .  A
C858        C859   1.400       .  A
C858        H869   1.082   1_545  S
C859        C868   1.360       .  A
C859        C860   1.380       .  A
C860        C861   1.408       .  A
C860        O866   1.323       .  A
C861        C862   1.407       .  A
C861        H870   1.082       .  S
C862        C865   1.366   1_545  A
O863        C864   1.332       .  A
C864        C865   1.396       .  A
C865        H871   1.081       .  S
O866        C867   1.334       .  A
C867        C868   1.391       .  A
C868        H872   1.083       .  S
C873        C878   1.380   1_554  A
C873        C874   1.404   1_554  A
C873        O879   1.320       .  A
C874        C875   1.403       .  A
C874        H885   1.082       .  S
C875        C884   1.361       .  A
C875        C876   1.379       .  A
C876        C877   1.405       .  A
C876        O882   1.321       .  A
C877        C878   1.405       .  A
C877        H886   1.082       .  S
C878        C881   1.363   1_556  A
O879        C880   1.331       .  A
C880        C881   1.393       .  A
C881        H887   1.082       .  S
O882        C883   1.333       .  A
C883        C884   1.393       .  A
C884        H888   1.081       .  S
C889        C894   1.381       .  A
C889        C890   1.405       .  A
C889        O895   1.323       .  A
C890        C891   1.406       .  A
C890        H901   1.082       .  S
C891        C900   1.363       .  A
C891        C892   1.381       .  A
C892        C893   1.399       .  A
C892        O898   1.318       .  A
C893        C894   1.399       .  A
C893        H902   1.082       .  S
C894        C897   1.353       .  A
O895        C896   1.332       .  A
C896        C897   1.391       .  A
C897        H903   1.082       .  S
O898        C899   1.328       .  A
C899        C900   1.392       .  A
C900        H904   1.083       .  S
C905        C910   1.379   1_545  A
C905        C906   1.403       .  A
C905        O911   1.312   1_545  A
C906        C907   1.400       .  A
C906        H917   1.082       .  S
C907        C916   1.367       .  A
C907        C908   1.380       .  A
C908        C909   1.406       .  A
C908        O914   1.315       .  A
C909        C910   1.402   1_545  A
C909        H918   1.082       .  S
C910        C913   1.368       .  A
O911        C912   1.329       .  A
C912        C913   1.391       .  A
C913        H919   1.082       .  S
O914        C915   1.332       .  A
C915        C916   1.390       .  A
C916        H920   1.082       .  S
C921        C926   1.379       .  A
C921        C922   1.405       .  A
C921        O927   1.321       .  A
C922        C923   1.405       .  A
C922        H933   1.082       .  S
C923        C932   1.364       .  A
C923        C924   1.380       .  A
C924        C925   1.404       .  A
C924        O930   1.319       .  A
C925        C926   1.403       .  A
C925        H934   1.082       .  S
C926        C929   1.361       .  A
O927        C928   1.333       .  A
C928        C929   1.393       .  A
C929        H935   1.082       .  S
O930        C931   1.331       .  A
C931        C932   1.393       .  A
C932        H936   1.082       .  S
O937        C940   1.269       .  A
O937       Cd942   2.475       .  S
C938        O947   1.264       .  A
C938        O943   1.268       .  A
C938       C1867   1.469       .  S
O939        C945   1.270       .  A
O939       Cd942   2.472       .  S
C940        O948   1.267       .  A
C940        C953   1.475       .  S
C941        O946   1.273       .  A
C941        O944   1.260       .  A
C941       C1851   1.469       .  S
Cd942       O949   2.445       .  S
Cd942       O948   2.486       .  S
Cd942       O947   2.454       .  S
Cd942       O943   2.471       .  S
Cd942       O946   2.524       .  S
Cd942       O944   2.403       .  S
C945        O949   1.266       .  A
C945       C1835   1.467       .  S
O950        C953   1.272       .  A
C951        O960   1.261       .  A
C951        O956   1.265       .  A
C951       C1816   1.471       .  S
O952        C958   1.269       .  A
O952       Cd955   2.484       .  S
C954        O959   1.266       .  A
C954        O957   1.262       .  A
C954       C1803   1.474       .  S
Cd955       O962   2.474       .  S
Cd955       O961   2.458       .  S
Cd955       O960   2.461       .  S
Cd955       O956   2.494       .  S
Cd955       O959   2.509       .  S
Cd955       O957   2.457       .  S
C958        O962   1.265       .  A
C958       C1784   1.474       .  S
C963        C964   1.534       .  S
C963        C969   1.534       .  S
C963        C967   1.550       .  S
C963       C1864   1.513       .  S
C964        H971   1.087       .  S
C964        C965   1.366       .  D
C965        C966   1.542       .  S
C965       C1768   1.487   1_545  S
C966        C970   1.544       .  S
C966        C968   1.524       .  S
C966        H972   1.108       .  S
C967        H973   1.085       .  S
C967        C968   1.370       .  D
C968       C1752   1.469   1_545  S
C969        H974   1.086       .  S
C969        C970   1.365       .  D
C970       C1819   1.485       .  S
O975        C978   1.271       .  A
O975       Cd980   2.458       .  S
C976        O985   1.262   1_554  A
C976        O981   1.264   1_554  A
C976       C1736   1.470       .  S
O977        C983   1.265       .  A
O977       Cd980   2.494       .  S
C978        O986   1.267       .  A
C978        C991   1.470       .  S
C979        O984   1.268       .  A
C979        O982   1.264       .  A
C979       C1723   1.474       .  S
Cd980       O987   2.443       .  S
Cd980       O986   2.465       .  S
Cd980       O985   2.461       .  S
Cd980       O981   2.489       .  S
Cd980       O984   2.492       .  S
Cd980       O982   2.477       .  S
C983        O987   1.262       .  A
C983       C1771   1.470       .  S
O988        C991   1.272       .  A
C989        O998   1.261       .  A
C989        O994   1.273       .  A
C989       C1707   1.466       .  S
O990        C996   1.267       .  A
O990       Cd993   2.474       .  S
C992        O997   1.269       .  A
C992        O995   1.266       .  A
C992       C1688   1.462       .  S
Cd993      O1000   2.446       .  S
Cd993       O999   2.441       .  S
Cd993       O998   2.400       .  S
Cd993       O994   2.499       .  S
Cd993       O997   2.453       .  S
Cd993       O995   2.428       .  S
C996       O1000   1.265       .  A
C996       C1755   1.468       .  S
C1001      C1002   1.524       .  S
C1001      C1007   1.535       .  S
C1001      C1005   1.549       .  S
C1001      C1704   1.510       .  S
C1002      H1009   1.086       .  S
C1002      C1003   1.364       .  D
C1003      C1004   1.547       .  S
C1003      C1739   1.482       .  S
C1004      C1008   1.543       .  S
C1004      C1006   1.531       .  S
C1004      H1010   1.110       .  S
C1005      H1011   1.086       .  S
C1005      C1006   1.372       .  D
C1006      C1848   1.475       .  S
C1007      H1012   1.086       .  S
C1007      C1008   1.364       .  D
C1008      C1800   1.488       .  S
C1013      C1014   1.540       .  S
C1013      C1019   1.522       .  S
C1013      C1017   1.524       .  S
C1013      C1672   1.512       .  S
C1014      H1021   1.086       .  S
C1014      C1015   1.369       .  D
C1015      C1016   1.541       .  S
C1015      C1656   1.481       .  S
C1016      C1018   1.555       .  S
C1016      H1022   1.108       .  S
C1017      H1023   1.085       .  S
C1017      C1018   1.371       .  D
C1018      C1643   1.482       .  S
C1020      C1032   1.504       .  S
C1025      C1026   1.537       .  S
C1025      C1031   1.520       .  S
C1025      C1029   1.527       .  S
C1025      C1627   1.518       .  S
C1026      H1033   1.086       .  S
C1026      C1027   1.371       .  D
C1027      C1028   1.543       .  S
C1027      C1608   1.483       .  S
C1028      C1032   1.551       .  S
C1028      C1030   1.555       .  S
C1028      H1034   1.109       .  S
C1029      H1035   1.085       .  S
C1029      C1030   1.374       .  D
C1030      C1592   1.484       .  S
C1031      H1036   1.085       .  S
C1031      C1032   1.363       .  D
C1037      C1038   1.534       .  S
C1037      C1043   1.534       .  S
C1037      C1659   1.513       .  S
C1038      H1045   1.081       .  S
C1038      C1039   1.369       .  D
C1039      C1040   1.543       .  S
C1039      C1611   1.486       .  S
C1040      C1044   1.544       .  S
C1040      C1042   1.541       .  S
C1040      H1046   1.110       .  S
C1041      H1047   1.085       .  S
C1043      H1048   1.086       .  S
C1043      C1044   1.367       .  D
C1044      C1576   1.480       .  S
C1049      C1050   1.537       .  S
C1049      C1055   1.519       .  S
C1049      C1053   1.533       .  S
C1049      C1720   1.513       .  S
C1050      H1057   1.086       .  S
C1050      C1051   1.367       .  D
C1051      C1052   1.541       .  S
C1051      C1544   1.482       .  S
C1052      C1056   1.542       .  S
C1052      C1054   1.550       .  S
C1052      H1058   1.109       .  S
C1053      H1059   1.086       .  S
C1053      C1054   1.374       .  D
C1054      C1579   1.477       .  S
C1055      H1060   1.087       .  S
C1055      C1056   1.365       .  D
C1056      C1068   1.491       .  S
C1061      C1062   1.541       .  S
C1061      C1067   1.525       .  S
C1061      C1065   1.523       .  S
C1061      C1691   1.512       .  S
C1062      H1069   1.085       .  S
C1062      C1063   1.369       .  D
C1063      C1064   1.539       .  S
C1063      C1528   1.478       .  S
C1064      C1068   1.543       .  S
C1064      C1066   1.547       .  S
C1064      H1070   1.111       .  S
C1065      H1071   1.086       .  S
C1065      C1066   1.369       .  D
C1066      C1563   1.474       .  S
C1067      H1072   1.083       .  S
C1067      C1068   1.363       .  D
C1073      C1074   1.527       .  S
C1073      C1079   1.534       .  S
C1073      C1077   1.532       .  S
C1073      C1531   1.505       .  S
C1074      H1081   1.084       .  S
C1074      C1075   1.369       .  D
C1075      C1076   1.551       .  S
C1075      C1547   1.485       .  S
C1076      C1080   1.544       .  S
C1076      C1078   1.542       .  S
C1076      H1082   1.111       .  S
C1077      H1083   1.086       .  S
C1077      C1078   1.365       .  D
C1078      C1640   1.478       .  S
C1079      H1084   1.085       .  S
C1079      C1080   1.367       .  D
C1080      C1595   1.486       .  S
C1085      C1086   1.531       .  S
C1085      C1091   1.516       .  S
C1085      C1089   1.536       .  S
C1085      C1512   1.510       .  S
C1086      H1093   1.086       .  S
C1086      C1087   1.375       .  D
C1087      C1088   1.553       .  S
C1087      C1480   1.479       .  S
C1088      C1092   1.548       .  S
C1088      C1090   1.542       .  S
C1088      H1094   1.110       .  S
C1089      H1095   1.085       .  S
C1089      C1090   1.369       .  D
C1090      C1496   1.487       .  S
C1091      H1096   1.088       .  S
C1091      C1092   1.360       .  D
C1092      C1104   1.489       .  S
C1097      C1098   1.527       .  S
C1097      C1103   1.524       .  S
C1097      C1101   1.535       .  S
C1097      C1467   1.515       .  S
C1098      H1105   1.086       .  S
C1098      C1099   1.369       .  D
C1099      C1100   1.545       .  S
C1099      C1432   1.465       .  S
C1100      C1102   1.547       .  S
C1100      H1106   1.111       .  S
C1101      H1107   1.085       .  S
C1101      C1102   1.372       .  D
C1102      C1451   1.488       .  S
C1103      H1108   1.086       .  S
C1109      C1110   1.536   1_655  S
C1109      C1115   1.537       .  S
C1109      C1113   1.537       .  S
C1109      C1499   1.513       .  S
C1111      C1419   1.483       .  S
C1112      C1116   1.546       .  S
C1112      C1114   1.539       .  S
C1112      H1118   1.109       .  S
C1113      H1119   1.086       .  S
C1113      C1114   1.366       .  D
C1114      C1403   1.479       .  S
C1115      H1120   1.086       .  S
C1115      C1116   1.370       .  D
C1116      C1448   1.487       .  S
C1121      C1122   1.530       .  S
C1121      C1127   1.518       .  S
C1121      C1125   1.535       .  S
C1121      C1787   1.515       .  S
C1122      H1129   1.085       .  S
C1122      C1123   1.375       .  D
C1123      C1124   1.552       .  S
C1123      C1416   1.482       .  S
C1124      C1128   1.548       .  S
C1124      C1126   1.542       .  S
C1124      H1130   1.111       .  S
C1125      H1131   1.085       .  S
C1125      C1126   1.369       .  D
C1126      C1387   1.484       .  S
C1127      H1132   1.087       .  S
C1127      C1128   1.366       .  D
C1128      C1140   1.499       .  S
C1133      C1134   1.521       .  S
C1133      C1139   1.518       .  S
C1133      C1137   1.531       .  S
C1133      C1832   1.507       .  S
C1134      H1141   1.085       .  S
C1134      C1135   1.373       .  D
C1135      C1136   1.558       .  S
C1135      C1400   1.483       .  S
C1136      C1140   1.551       .  S
C1136      C1138   1.544       .  S
C1136      H1142   1.110       .  S
C1137      H1143   1.087       .  S
C1137      C1138   1.365       .  D
C1138      C1368   1.478       .  S
C1139      H1144   1.087       .  S
C1139      C1140   1.368       .  D
C1145      C1146   1.537       .  S
C1145      C1151   1.536       .  S
C1145      C1149   1.542       .  S
C1145      C1384   1.510       .  S
C1146      H1153   1.086       .  S
C1146      C1147   1.364       .  D
C1147      C1148   1.539       .  S
C1147      C1483   1.481       .  S
C1148      C1152   1.537       .  S
C1148      C1150   1.540       .  S
C1148      H1154   1.106       .  S
C1149      H1155   1.086       .  S
C1149      C1150   1.368       .  D
C1150      C1435   1.480       .  S
C1151      H1156   1.084       .  S
C1151      C1152   1.368       .  D
C1152      C1371   1.484       .  S
O1157      C1160   1.271       .  A
O1157     Cd1162   2.461       .  S
C1158      O1167   1.261       .  A
C1158      O1163   1.265       .  A
C1158      C1352   1.471       .  S
O1159      C1165   1.269       .  A
O1159     Cd1162   2.477       .  S
C1160      O1168   1.268       .  A
C1160      C1171   1.473       .  S
C1161      O1166   1.265       .  A
C1161      O1164   1.263       .  A
C1161      C1336   1.470       .  S
Cd1162     O1169   2.458       .  S
Cd1162     O1168   2.476       .  S
Cd1162     O1167   2.464       .  S
Cd1162     O1163   2.496       .  S
Cd1162     O1166   2.495       .  S
Cd1162     O1164   2.444       .  S
C1165      O1169   1.264       .  A
C1165      C1515   1.469       .  S
O1170      C1173   1.277       .  A
O1170     Cd1175   2.493       .  S
C1171      O1180   1.266       .  A
C1171      O1176   1.274       .  A
O1172      C1178   1.275       .  A
O1172     Cd1175   2.462       .  S
C1173      O1181   1.266       .  A
C1173      C1323   1.470       .  S
C1174      O1179   1.272       .  A
C1174      O1177   1.267       .  A
C1174      C1464   1.472       .  S
Cd1175     O1182   2.417       .  S
Cd1175     O1181   2.388       .  S
Cd1175     O1180   2.437       .  S
Cd1175     O1176   2.493       .  S
Cd1175     O1179   2.474       .  S
Cd1175     O1177   2.440       .  S
C1178      O1182   1.266       .  A
C1178      C1307   1.464       .  S
C1183      C1189   1.522       .  S
C1183      C1187   1.554       .  S
C1184      H1191   1.087       .  S
C1184      C1185   1.362       .  D
C1185      C1272   1.483       .  S
C1186      C1190   1.544       .  S
C1186      C1188   1.536       .  S
C1186      H1192   1.105       .  S
C1187      H1193   1.085       .  S
C1187      C1188   1.378       .  D
C1188      C1288   1.487       .  S
C1189      H1194   1.086       .  S
C1189      C1190   1.361       .  D
C1190      C1355   1.482       .  S
O1195      C1198   1.272       .  A
O1195     Cd1200   2.480       .  S
C1196      O1205   1.266       .  A
C1196      O1201   1.275       .  A
C1196      C1256   1.467       .  S
O1197      C1203   1.274       .  A
O1197     Cd1200   2.510       .  S
C1198      O1206   1.266       .  A
C1198      C1211   1.471       .  S
C1199      O1204   1.273       .  A
C1199      O1202   1.266       .  A
C1199      C1624   1.473       .  S
Cd1200     O1207   2.404       .  S
Cd1200     O1206   2.444       .  S
Cd1200     O1205   2.405       .  S
Cd1200     O1201   2.476       .  S
Cd1200     O1204   2.471       .  S
Cd1200     O1202   2.450       .  S
C1203      O1207   1.263       .  A
C1203      C1291   1.469       .  S
O1208      C1211   1.270       .  A
O1208     Cd1213   2.472       .  S
C1209      O1218   1.264       .  A
C1209      O1214   1.263       .  A
C1209      C1243   1.473       .  S
O1210      C1216   1.266       .  A
O1210     Cd1213   2.480       .  S
C1211      O1219   1.266       .  A
C1212      O1217   1.268       .  A
C1212      O1215   1.265       .  A
C1212      C1675   1.469       .  S
Cd1213     O1220   2.428       .  S
Cd1213     O1219   2.469       .  S
Cd1213     O1218   2.478       .  S
Cd1213     O1214   2.482       .  S
Cd1213     O1217   2.486       .  S
Cd1213     O1215   2.444       .  S
C1216      O1220   1.264       .  A
C1216      C1275   1.467       .  S
C1221      C1222   1.527       .  S
C1221      C1227   1.533       .  S
C1221      C1225   1.551       .  S
C1221      C1259   1.509       .  S
C1222      H1229   1.086       .  S
C1222      C1223   1.364       .  D
C1223      C1224   1.548       .  S
C1224      C1228   1.543       .  S
C1224      C1226   1.531   1_655  S
C1224      H1230   1.108       .  S
C1225      H1231   1.085       .  S
C1225      C1226   1.373   1_655  D
C1227      H1232   1.086       .  S
C1227      C1228   1.362       .  D
C1228      C1339   1.488       .  S
C1233      C1238   1.379       .  A
C1233      C1234   1.404       .  A
C1234      C1235   1.404       .  A
C1234      H1245   1.082       .  S
C1235      C1244   1.363       .  A
C1235      C1236   1.380       .  A
C1236      C1237   1.406       .  A
C1236      O1242   1.320   1_556  A
C1237      C1238   1.405       .  A
C1237      H1246   1.082       .  S
C1238      C1241   1.365       .  A
C1240      C1241   1.394       .  A
C1241      H1247   1.081       .  S
O1242      C1243   1.332       .  A
C1243      C1244   1.392   1_554  A
C1244      H1248   1.082   1_556  S
C1249      C1254   1.380       .  A
C1249      C1250   1.405       .  A
C1249      O1255   1.317       .  A
C1250      C1251   1.402       .  A
C1250      H1261   1.082       .  S
C1251      C1260   1.366       .  A
C1251      C1252   1.379       .  A
C1252      C1253   1.403       .  A
C1252      O1258   1.314       .  A
C1253      C1254   1.400       .  A
C1253      H1262   1.082       .  S
C1254      C1257   1.364       .  A
O1255      C1256   1.331       .  A
C1256      C1257   1.390       .  A
C1257      H1263   1.082       .  S
O1258      C1259   1.332       .  A
C1259      C1260   1.392       .  A
C1260      H1264   1.082       .  S
C1265      C1270   1.379       .  A
C1265      C1266   1.399       .  A
C1265      O1271   1.314       .  A
C1266      C1267   1.398       .  A
C1266      H1277   1.082       .  S
C1267      C1276   1.356       .  A
C1267      C1268   1.380       .  A
C1268      C1269   1.407       .  A
C1268      O1274   1.322       .  A
C1269      C1270   1.407       .  A
C1269      H1278   1.082       .  S
C1270      C1273   1.366       .  A
O1271      C1272   1.330       .  A
C1272      C1273   1.396       .  A
C1273      H1279   1.080       .  S
O1274      C1275   1.333       .  A
C1275      C1276   1.389       .  A
C1276      H1280   1.083       .  S
C1281      C1286   1.379       .  A
C1281      C1282   1.404       .  A
C1281      O1287   1.324       .  A
C1282      C1283   1.406       .  A
C1282      H1293   1.082       .  S
C1283      C1292   1.358       .  A
C1283      C1284   1.381       .  A
C1284      C1285   1.401       .  A
C1284      O1290   1.323       .  A
C1285      C1286   1.404       .  A
C1285      H1294   1.082       .  S
C1286      C1289   1.354       .  A
O1287      C1288   1.333       .  A
C1288      C1289   1.396       .  A
C1289      H1295   1.080       .  S
O1290      C1291   1.330       .  A
C1291      C1292   1.392       .  A
C1292      H1296   1.083       .  S
C1297      C1302   1.379       .  A
C1297      C1298   1.398       .  A
C1297      O1303   1.309       .  A
C1298      C1299   1.395       .  A
C1298      H1309   1.082       .  S
C1299      C1308   1.360       .  A
C1299      C1300   1.380       .  A
C1300      C1301   1.409       .  A
C1300      O1306   1.319       .  A
C1301      C1302   1.406       .  A
C1301      H1310   1.082       .  S
C1302      C1305   1.371       .  A
O1303      C1304   1.328       .  A
C1304      C1305   1.395       .  A
C1305      H1311   1.082       .  S
O1306      C1307   1.334       .  A
C1307      C1308   1.386       .  A
C1308      H1312   1.082       .  S
C1313      C1318   1.381       .  A
C1313      C1314   1.402       .  A
C1313      O1319   1.323       .  A
C1314      C1315   1.404       .  A
C1314      H1325   1.083       .  S
C1315      C1324   1.357       .  A
C1315      C1316   1.381       .  A
C1316      C1317   1.402       .  A
C1316      O1322   1.323       .  A
C1317      C1318   1.404       .  A
C1317      H1326   1.083       .  S
C1318      C1321   1.356       .  A
O1319      C1320   1.331       .  A
C1320      C1321   1.394       .  A
C1321      H1327   1.083       .  S
O1322      C1323   1.330       .  A
C1323      C1324   1.392       .  A
C1324      H1328   1.083       .  S
C1329      C1334   1.380       .  A
C1329      C1330   1.407       .  A
C1329      O1335   1.322       .  A
C1330      C1331   1.406       .  A
C1330      H1341   1.083       .  S
C1331      C1340   1.366       .  A
C1331      C1332   1.378       .  A
C1332      C1333   1.401       .  A
C1332      O1338   1.314       .  A
C1333      C1334   1.399       .  A
C1333      H1342   1.083       .  S
C1334      C1337   1.358       .  A
O1335      C1336   1.333       .  A
C1336      C1337   1.390       .  A
C1337      H1343   1.083       .  S
O1338      C1339   1.332       .  A
C1339      C1340   1.396       .  A
C1340      H1344   1.081       .  S
C1345      C1350   1.380       .  A
C1345      C1346   1.403       .  A
C1345      O1351   1.319       .  A
C1346      C1347   1.402       .  A
C1346      H1357   1.082       .  S
C1347      C1356   1.359       .  A
C1347      C1348   1.379       .  A
C1348      C1349   1.404       .  A
C1348      O1354   1.321       .  A
C1349      C1350   1.405       .  A
C1349      H1358   1.082       .  S
C1350      C1353   1.364       .  A
O1351      C1352   1.331   1_554  A
C1352      C1353   1.392   1_556  A
C1353      H1359   1.082   1_554  S
O1354      C1355   1.332       .  A
C1355      C1356   1.394       .  A
C1356      H1360   1.082       .  S
C1361      C1366   1.380       .  A
C1361      C1362   1.401       .  A
C1361      O1367   1.314       .  A
C1362      C1363   1.399       .  A
C1362      H1373   1.081       .  S
C1363      C1372   1.359       .  A
C1363      C1364   1.379       .  A
C1364      C1365   1.408       .  A
C1364      O1370   1.321       .  A
C1365      C1366   1.407       .  A
C1365      H1374   1.081       .  S
C1366      C1369   1.368       .  A
O1367      C1368   1.330       .  A
C1368      C1369   1.393       .  A
C1369      H1375   1.082       .  S
O1370      C1371   1.334       .  A
C1371      C1372   1.392       .  A
C1372      H1376   1.081       .  S
C1377      C1382   1.380       .  A
C1377      C1378   1.403       .  A
C1377      O1383   1.319       .  A
C1378      C1379   1.403   1_556  A
C1378      H1389   1.082       .  S
C1379      C1388   1.360       .  A
C1379      C1380   1.379       .  A
C1380      C1381   1.404       .  A
C1380      O1386   1.320       .  A
C1381      C1382   1.404   1_554  A
C1381      H1390   1.082       .  S
C1382      C1385   1.362       .  A
O1383      C1384   1.332       .  A
C1384      C1385   1.393       .  A
C1385      H1391   1.082       .  S
O1386      C1387   1.332       .  A
C1387      C1388   1.395       .  A
C1388      H1392   1.082       .  S
C1393      C1398   1.380       .  A
C1393      C1394   1.409       .  A
C1393      O1399   1.326       .  A
C1394      C1395   1.409       .  A
C1394      H1405   1.082       .  S
C1395      C1404   1.366       .  A
C1395      C1396   1.380       .  A
C1396      C1397   1.399       .  A
C1396      O1402   1.317       .  A
C1397      C1398   1.399       .  A
C1397      H1406   1.082       .  S
C1398      C1401   1.354       .  A
O1399      C1400   1.334       .  A
C1400      C1401   1.392       .  A
C1401      H1407   1.082       .  S
O1402      C1403   1.328       .  A
C1403      C1404   1.396       .  A
C1404      H1408   1.082       .  S
C1409      C1414   1.380       .  A
C1409      C1410   1.406       .  A
C1409      O1415   1.323       .  A
C1410      C1411   1.406       .  A
C1410      H1421   1.082       .  S
C1411      C1420   1.363       .  A
C1411      C1412   1.380       .  A
C1412      C1413   1.403       .  A
C1412      O1418   1.320       .  A
C1413      C1414   1.403       .  A
C1413      H1422   1.082       .  S
C1414      C1417   1.360       .  A
O1415      C1416   1.333       .  A
C1416      C1417   1.392       .  A
C1417      H1423   1.082       .  S
O1418      C1419   1.331       .  A
C1419      C1420   1.395       .  A
C1420      H1424   1.082       .  S
C1425      C1430   1.382       .  A
C1425      C1426   1.394       .  A
C1425      O1431   1.312       .  A
C1426      C1427   1.394       .  A
C1426      H1437   1.082       .  S
C1427      C1436   1.350       .  A
C1427      C1428   1.378       .  A
C1428      C1429   1.409       .  A
C1428      O1434   1.323       .  A
C1429      C1430   1.409       .  A
C1429      H1438   1.082       .  S
C1430      C1433   1.368       .  A
O1431      C1432   1.325       .  A
C1432      C1433   1.392       .  A
C1433      H1439   1.082       .  S
O1434      C1435   1.335       .  A
C1435      C1436   1.389       .  A
C1436      H1440   1.080       .  S
C1441      C1442   1.402       .  A
C1441      O1447   1.319       .  A
C1442      C1443   1.402       .  A
C1442      H1453   1.082       .  S
C1443      C1452   1.359       .  A
C1444      C1445   1.408       .  A
C1444      O1450   1.324       .  A
C1445      C1446   1.408       .  A
C1445      H1454   1.082       .  S
C1446      C1449   1.367       .  A
O1447      C1448   1.332       .  A
C1449      H1455   1.081       .  S
O1450      C1451   1.334       .  A
C1452      H1456   1.081   1_655  S
C1457      C1462   1.380       .  A
C1457      C1458   1.408       .  A
C1457      O1463   1.320       .  A
C1458      C1459   1.406       .  A
C1458      H1469   1.082       .  S
C1459      C1468   1.370       .  A
C1459      C1460   1.379       .  A
C1460      C1461   1.402       .  A
C1460      O1466   1.313       .  A
C1461      C1462   1.399       .  A
C1461      H1470   1.082       .  S
C1462      C1465   1.363       .  A
O1463      C1464   1.333       .  A
C1464      C1465   1.390       .  A
C1465      H1471   1.082       .  S
O1466      C1467   1.332       .  A
C1467      C1468   1.395       .  A
C1468      H1472   1.082       .  S
C1473      C1478   1.380       .  A
C1473      C1474   1.403       .  A
C1473      O1479   1.318       .  A
C1474      C1475   1.402       .  A
C1474      H1485   1.082       .  S
C1475      C1484   1.361       .  A
C1475      C1476   1.380       .  A
C1476      C1477   1.406       .  A
C1476      O1482   1.321       .  A
C1477      C1478   1.406       .  A
C1477      H1486   1.082       .  S
C1478      C1481   1.365       .  A
O1479      C1480   1.331       .  A
C1480      C1481   1.393       .  A
C1481      H1487   1.082       .  S
O1482      C1483   1.333       .  A
C1483      C1484   1.392       .  A
C1484      H1488   1.081       .  S
C1489      C1494   1.379   1_556  A
C1489      C1490   1.406       .  A
C1489      O1495   1.322       .  A
C1490      C1491   1.406   1_556  A
C1490      H1501   1.082       .  S
C1491      C1500   1.362       .  A
C1491      C1492   1.380       .  A
C1492      C1493   1.403       .  A
C1492      O1498   1.321       .  A
C1493      C1494   1.404       .  A
C1493      H1502   1.082       .  S
C1494      C1497   1.360   1_554  A
O1495      C1496   1.333       .  A
C1496      C1497   1.395       .  A
C1497      H1503   1.082       .  S
O1498      C1499   1.332       .  A
C1499      C1500   1.394       .  A
C1500      H1504   1.082       .  S
C1505      C1510   1.380       .  A
C1505      C1506   1.408       .  A
C1505      O1511   1.326       .  A
C1506      C1507   1.409       .  A
C1506      H1517   1.082       .  S
C1507      C1516   1.365       .  A
C1507      C1508   1.381       .  A
C1508      C1509   1.398       .  A
C1508      O1514   1.317       .  A
C1509      C1510   1.399       .  A
C1509      H1518   1.082       .  S
C1510      C1513   1.351       .  A
O1511      C1512   1.333       .  A
C1512      C1513   1.392       .  A
C1513      H1519   1.083       .  S
O1514      C1515   1.328       .  A
C1515      C1516   1.394       .  A
C1516      H1520   1.082       .  S
C1521      C1526   1.380       .  A
C1521      C1522   1.400       .  A
C1521      O1527   1.316       .  A
C1522      C1523   1.399       .  A
C1522      H1533   1.082       .  S
C1523      C1532   1.356       .  A
C1523      C1524   1.380       .  A
C1524      C1525   1.405       .  A
C1524      O1530   1.320       .  A
C1525      C1526   1.405       .  A
C1525      H1534   1.082       .  S
C1526      C1529   1.363       .  A
O1527      C1528   1.329       .  A
C1528      C1529   1.395       .  A
C1529      H1535   1.082       .  S
O1530      C1531   1.333       .  A
C1531      C1532   1.390       .  A
C1532      H1536   1.082       .  S
C1537      C1542   1.379       .  A
C1537      C1538   1.401       .  A
C1537      O1543   1.317       .  A
C1538      C1539   1.401       .  A
C1538      H1549   1.083       .  S
C1539      C1548   1.356       .  A
C1539      C1540   1.379       .  A
C1540      C1541   1.406       .  A
C1540      O1546   1.323       .  A
C1541      C1542   1.407       .  A
C1541      H1550   1.082       .  S
C1542      C1545   1.364   1_554  A
O1543      C1544   1.331   1_554  A
C1544      C1545   1.394       .  A
C1545      H1551   1.081       .  S
O1546      C1547   1.333       .  A
C1547      C1548   1.394       .  A
C1548      H1552   1.082       .  S
C1553      C1558   1.380       .  A
C1553      C1554   1.399       .  A
C1553      O1559   1.317       .  A
C1554      C1555   1.399       .  A
C1554      H1565   1.082       .  S
C1555      C1564   1.355       .  A
C1555      C1556   1.381       .  A
C1556      C1557   1.405       .  A
C1556      O1562   1.323       .  A
C1557      C1558   1.406       .  A
C1557      H1566   1.082       .  S
C1558      C1561   1.362       .  A
O1559      C1560   1.328       .  A
C1560      C1561   1.396       .  A
C1561      H1567   1.082       .  S
O1562      C1563   1.331       .  A
C1563      C1564   1.389       .  A
C1564      H1568   1.082       .  S
C1569      C1574   1.380       .  A
C1569      C1570   1.403       .  A
C1569      O1575   1.318       .  A
C1570      C1571   1.402       .  A
C1570      H1581   1.083       .  S
C1571      C1580   1.361       .  A
C1571      C1572   1.380       .  A
C1572      C1573   1.405       .  A
C1572      O1578   1.320       .  A
C1573      C1574   1.404       .  A
C1573      H1582   1.082       .  S
C1574      C1577   1.365       .  A
O1575      C1576   1.331       .  A
C1576      C1577   1.393       .  A
C1577      H1583   1.082       .  S
O1578      C1579   1.332       .  A
C1579      C1580   1.391       .  A
C1580      H1584   1.081       .  S
C1585      C1590   1.380       .  A
C1585      C1586   1.405       .  A
C1585      O1591   1.322       .  A
C1586      C1587   1.406       .  A
C1586      H1597   1.082       .  S
C1587      C1596   1.362       .  A
C1587      C1588   1.380       .  A
C1588      C1589   1.405       .  A
C1588      O1594   1.322       .  A
C1589      C1590   1.405       .  A
C1589      H1598   1.082       .  S
C1590      C1593   1.361       .  A
O1591      C1592   1.332       .  A
C1592      C1593   1.394       .  A
C1593      H1599   1.082       .  S
O1594      C1595   1.332       .  A
C1595      C1596   1.395       .  A
C1596      H1600   1.082       .  S
C1601      C1606   1.380       .  A
C1601      C1602   1.398       .  A
C1601      O1607   1.315       .  A
C1602      C1603   1.397       .  A
C1602      H1613   1.082       .  S
C1603      C1612   1.353       .  A
C1603      C1604   1.378       .  A
C1604      C1605   1.410       .  A
C1604      O1610   1.325       .  A
C1605      C1606   1.410       .  A
C1605      H1614   1.082       .  S
C1606      C1609   1.368       .  A
O1607      C1608   1.329       .  A
C1608      C1609   1.397       .  A
C1609      H1615   1.082       .  S
O1610      C1611   1.335       .  A
C1611      C1612   1.392       .  A
C1612      H1616   1.081       .  S
C1617      C1622   1.379       .  A
C1617      C1618   1.412       .  A
C1617      O1623   1.322       .  A
C1618      C1619   1.409       .  A
C1618      H1629   1.082       .  S
C1619      C1628   1.374       .  A
C1619      C1620   1.378       .  A
C1620      C1621   1.399       .  A
C1620      O1626   1.311       .  A
C1621      C1622   1.396       .  A
C1621      H1630   1.082       .  S
C1622      C1625   1.360       .  A
O1623      C1624   1.335       .  A
C1624      C1625   1.388       .  A
C1625      H1631   1.082       .  S
O1626      C1627   1.331       .  A
C1627      C1628   1.397       .  A
C1628      H1632   1.082       .  S
C1633      C1638   1.381       .  A
C1633      C1634   1.402       .  A
C1633      O1639   1.320       .  A
C1634      C1635   1.403       .  A
C1634      H1645   1.082       .  S
C1635      C1644   1.358       .  A
C1635      C1636   1.380       .  A
C1636      C1637   1.405       .  A
C1636      O1642   1.322       .  A
C1637      C1638   1.405       .  A
C1637      H1646   1.082       .  S
C1638      C1641   1.361       .  A
O1639      C1640   1.330       .  A
C1640      C1641   1.393       .  A
C1641      H1647   1.082       .  S
O1642      C1643   1.332       .  A
C1643      C1644   1.394       .  A
C1644      H1648   1.082       .  S
C1649      C1650   1.403       .  A
C1649      O1655   1.319       .  A
C1650      C1651   1.403   1_554  A
C1650      H1661   1.083   1_554  S
C1651      C1660   1.360       .  A
C1652      C1653   1.403       .  A
C1652      O1658   1.318   1_554  A
C1653      C1654   1.403       .  A
C1653      H1662   1.083       .  S
C1654      C1657   1.361       .  A
C1656      C1657   1.393       .  A
C1657      H1663   1.082       .  S
C1659      C1660   1.396       .  A
C1660      H1664   1.081       .  S
C1665      C1670   1.380       .  A
C1665      C1666   1.404       .  A
C1665      O1671   1.322       .  A
C1666      C1667   1.404       .  A
C1666      H1677   1.082       .  S
C1667      C1676   1.361       .  A
C1667      C1668   1.381       .  A
C1668      C1669   1.403       .  A
C1668      O1674   1.321       .  A
C1669      C1670   1.404       .  A
C1669      H1678   1.082       .  S
C1670      C1673   1.358       .  A
O1671      C1672   1.332       .  A
C1672      C1673   1.394       .  A
C1673      H1679   1.083       .  S
O1674      C1675   1.331       .  A
C1675      C1676   1.391       .  A
C1676      H1680   1.083       .  S
C1681      C1686   1.381       .  A
C1681      C1682   1.399       .  A
C1681      O1687   1.317       .  A
C1682      C1683   1.399       .  A
C1682      H1693   1.082       .  S
C1683      C1692   1.353       .  A
C1683      C1684   1.378       .  A
C1684      C1685   1.403       .  A
C1684      O1690   1.319       .  A
C1685      C1686   1.403       .  A
C1685      H1694   1.082       .  S
C1686      C1689   1.359       .  A
O1687      C1688   1.328       .  A
C1688      C1689   1.391       .  A
C1689      H1695   1.082       .  S
O1690      C1691   1.332       .  A
C1691      C1692   1.396       .  A
C1692      H1696   1.081       .  S
C1697      C1702   1.379       .  A
C1697      C1698   1.403       .  A
C1697      O1703   1.314       .  A
C1698      C1699   1.400       .  A
C1698      H1709   1.082       .  S
C1699      C1708   1.365       .  A
C1699      C1700   1.380       .  A
C1700      C1701   1.405       .  A
C1700      O1706   1.316       .  A
C1701      C1702   1.402       .  A
C1701      H1710   1.082       .  S
C1702      C1705   1.366       .  A
O1703      C1704   1.332       .  A
C1704      C1705   1.393       .  A
C1705      H1711   1.082       .  S
O1706      C1707   1.332       .  A
C1707      C1708   1.390       .  A
C1708      H1712   1.082       .  S
C1713      C1718   1.380       .  A
C1713      C1714   1.409       .  A
C1713      O1719   1.327       .  A
C1714      C1715   1.410       .  A
C1714      H1725   1.082       .  S
C1715      C1724   1.367       .  A
C1715      C1716   1.381       .  A
C1716      C1717   1.400       .  A
C1716      O1722   1.319       .  A
C1717      C1718   1.401       .  A
C1717      H1726   1.082       .  S
C1718      C1721   1.354       .  A
O1719      C1720   1.334       .  A
C1720      C1721   1.393       .  A
C1721      H1727   1.083       .  S
O1722      C1723   1.329       .  A
C1723      C1724   1.395       .  A
C1724      H1728   1.082       .  S
C1729      C1734   1.380       .  A
C1729      C1730   1.402       .  A
C1729      O1735   1.318       .  A
C1730      C1731   1.401       .  A
C1730      H1741   1.082       .  S
C1731      C1740   1.359       .  A
C1731      C1732   1.379       .  A
C1732      C1733   1.406       .  A
C1732      O1738   1.322       .  A
C1733      C1734   1.406       .  A
C1733      H1742   1.082       .  S
C1734      C1737   1.365       .  A
O1735      C1736   1.330       .  A
C1736      C1737   1.394       .  A
C1737      H1743   1.083       .  S
O1738      C1739   1.332       .  A
C1739      C1740   1.393       .  A
C1740      H1744   1.082       .  S
C1745      C1750   1.380       .  A
C1745      C1746   1.402       .  A
C1745      O1751   1.317       .  A
C1746      C1747   1.401       .  A
C1746      H1757   1.079       .  S
C1747      C1756   1.360       .  A
C1747      C1748   1.380       .  A
C1748      C1749   1.406       .  A
C1748      O1754   1.320       .  A
C1749      C1750   1.405       .  A
C1749      H1758   1.086       .  S
C1750      C1753   1.364       .  A
O1751      C1752   1.329       .  A
C1752      C1753   1.391       .  A
C1753      H1759   1.085       .  S
O1754      C1755   1.332       .  A
C1755      C1756   1.390       .  A
C1756      H1760   1.080       .  S
C1761      C1766   1.379       .  A
C1761      C1762   1.401       .  A
C1761      O1767   1.316       .  A
C1762      C1763   1.400       .  A
C1762      H1773   1.081       .  S
C1763      C1772   1.358       .  A
C1763      C1764   1.380       .  A
C1764      C1765   1.406       .  A
C1764      O1770   1.322       .  A
C1765      C1766   1.406       .  A
C1765      H1774   1.082       .  S
C1766      C1769   1.363       .  A
O1767      C1768   1.332       .  A
C1768      C1769   1.397       .  A
C1769      H1775   1.081       .  S
O1770      C1771   1.333       .  A
C1771      C1772   1.391       .  A
C1772      H1776   1.082       .  S
C1777      C1782   1.381       .  A
C1777      C1778   1.400       .  A
C1777      O1783   1.319       .  A
C1778      C1779   1.400       .  A
C1778      H1789   1.082       .  S
C1779      C1788   1.354       .  A
C1779      C1780   1.380       .  A
C1780      C1781   1.409       .  A
C1780      O1786   1.327       .  A
C1781      C1782   1.411       .  A
C1781      H1790   1.082       .  S
C1782      C1785   1.367       .  A
O1783      C1784   1.329       .  A
C1784      C1785   1.395       .  A
C1785      H1791   1.082       .  S
O1786      C1787   1.335       .  A
C1787      C1788   1.392       .  A
C1788      H1792   1.083       .  S
C1793      C1798   1.378   1_565  A
C1793      C1794   1.401   1_565  A
C1793      O1799   1.315       .  A
C1794      C1795   1.400       .  A
C1794      H1805   1.082   1_545  S
C1795      C1804   1.360       .  A
C1795      C1796   1.380       .  A
C1796      C1797   1.408       .  A
C1796      O1802   1.323       .  A
C1797      C1798   1.407       .  A
C1797      H1806   1.082       .  S
C1798      C1801   1.366   1_545  A
O1799      C1800   1.332       .  A
C1800      C1801   1.396       .  A
C1801      H1807   1.081       .  S
O1802      C1803   1.333       .  A
C1803      C1804   1.391       .  A
C1804      H1808   1.083       .  S
C1809      C1814   1.380   1_554  A
C1809      C1810   1.404   1_554  A
C1809      O1815   1.320       .  A
C1810      C1811   1.403       .  A
C1810      H1821   1.082       .  S
C1811      C1820   1.361       .  A
C1811      C1812   1.379       .  A
C1812      C1813   1.405       .  A
C1812      O1818   1.321       .  A
C1813      C1814   1.405       .  A
C1813      H1822   1.082       .  S
C1814      C1817   1.363   1_556  A
O1815      C1816   1.331       .  A
C1816      C1817   1.393       .  A
C1817      H1823   1.083       .  S
O1818      C1819   1.333       .  A
C1819      C1820   1.393       .  A
C1820      H1824   1.081       .  S
C1825      C1830   1.381       .  A
C1825      C1826   1.406       .  A
C1825      O1831   1.324       .  A
C1826      C1827   1.407       .  A
C1826      H1837   1.082       .  S
C1827      C1836   1.363       .  A
C1827      C1828   1.381       .  A
C1828      C1829   1.399       .  A
C1828      O1834   1.318       .  A
C1829      C1830   1.399       .  A
C1829      H1838   1.082       .  S
C1830      C1833   1.353       .  A
O1831      C1832   1.332       .  A
C1832      C1833   1.391       .  A
C1833      H1839   1.083       .  S
O1834      C1835   1.328       .  A
C1835      C1836   1.393       .  A
C1836      H1840   1.082       .  S
C1841      C1846   1.379   1_545  A
C1841      C1842   1.403       .  A
C1841      O1847   1.312   1_545  A
C1842      C1843   1.400       .  A
C1842      H1853   1.082       .  S
C1843      C1852   1.367       .  A
C1843      C1844   1.380       .  A
C1844      C1845   1.406       .  A
C1844      O1850   1.315       .  A
C1845      C1846   1.402   1_545  A
C1845      H1854   1.082       .  S
C1846      C1849   1.369       .  A
O1847      C1848   1.329       .  A
C1848      C1849   1.391       .  A
C1849      H1855   1.082       .  S
O1850      C1851   1.332       .  A
C1851      C1852   1.390       .  A
C1852      H1856   1.082       .  S
C1857      C1862   1.379       .  A
C1857      C1858   1.406       .  A
C1857      O1863   1.322       .  A
C1858      C1859   1.405       .  A
C1858      H1869   1.082       .  S
C1859      C1868   1.364       .  A
C1859      C1860   1.380       .  A
C1860      C1861   1.404       .  A
C1860      O1866   1.319       .  A
C1861      C1862   1.403       .  A
C1861      H1870   1.082       .  S
C1862      C1865   1.361       .  A
O1863      C1864   1.333       .  A
C1864      C1865   1.393       .  A
C1865      H1871   1.083       .  S
O1866      C1867   1.331       .  A
C1867      C1868   1.393       .  A
C1868      H1872   1.082       .  S
