geometry optimzed in LAMMPS
_audit_creation_date              2020-11-30 
_audit_creation_method            'lammps2cif' 
_symmetry_space_group_name_H-M    'P1' 
_symmetry_Int_Tables_number       1 
_symmetry_cell_setting            triclinic 
loop_ 
_symmetry_equiv_pos_as_xyz 
  x,y,z 
_cell_length_a                    35.94583037 
_cell_length_b                    33.53459920569994 
_cell_length_c                    34.88080149855915 
_cell_angle_alpha                 90.19151680596752 
_cell_angle_beta                  90.04380845448475 
_cell_angle_gamma                 90.52351926110713 
loop_ 
_atom_site_label 
_atom_site_type_symbol 
_atom_site_fract_x 
_atom_site_fract_y 
_atom_site_fract_z 
_atom_site_charge 
N1          N  0.49748104  0.04845272  0.49926003    -0.36500
N2          N  0.49616500  0.98477286  0.44234738    -0.57000
N3          N  0.48650873  0.92545164  0.50382743    -0.36500
N4          N  0.48999286  0.98925446  0.56063611    -0.57000
C5          C  0.50681412  0.06964042  0.46755626     0.27100
C6          C  0.50398824  0.07199373  0.53025709     0.27100
C7          C  0.49352475  0.90126203  0.47348000     0.27100
C8          C  0.49115859  0.90370242  0.53626284     0.27100
C9          C  0.49556885  0.01645547  0.41827653     0.35700
C10         C  0.48993510  0.95177427  0.42068355     0.35700
C11         C  0.48770990  0.02291871  0.58201592     0.35700
C12         C  0.48300694  0.95825781  0.58447704     0.35700
C13         C  0.51880202  0.10740189  0.47855588    -0.21800
C14         C  0.51705160  0.10888817  0.51797821    -0.21800
C15         C  0.50184430  0.86342219  0.48680187    -0.21800
C16         C  0.50040759  0.86498069  0.52627158    -0.21800
C17         C  0.48923353  0.00342077  0.38107206    -0.22800
C18         C  0.48573395  0.96257870  0.38257288    -0.22800
C19         C  0.47930692  0.01311177  0.61968109    -0.22800
C20         C  0.47635898  0.97231299  0.62121319    -0.22800
C21         C  0.50289304  0.05671175  0.42891598    -0.18200
C22         C  0.49652002  0.06200986  0.56911501    -0.18200
C23         C  0.48625037  0.91739818  0.57458113    -0.18200
C24         C  0.49126587  0.91184524  0.43407961    -0.18200
H25         H  0.52756628  0.13160196  0.46010591     0.14700
H26         H  0.52414469  0.13454172  0.53549366     0.14700
H27         H  0.50833092  0.83729631  0.46986571     0.14700
H28         H  0.50556160  0.84030255  0.54541616     0.14700
H29         H  0.48788407  0.02138021  0.35539116     0.13000
H30         H  0.48125800  0.94302724  0.35821972     0.13000
H31         H  0.47664790  0.03307784  0.64393116     0.13000
H32         H  0.47091775  0.95496235  0.64674202     0.13000
H33         H  0.48383804  0.02111735  0.49957586     0.26300
H34         H  0.47588180  0.95405783  0.50223352     0.26300
N35         N  0.93969043  0.49344151  0.50401155    -0.36500
N36         N  0.98734945  0.56258855  0.50940704    -0.57000
N37         N  0.05119723  0.51101261  0.50598839    -0.36500
N38         N  0.00300544  0.44137264  0.49905694    -0.57000
C39         C  0.91493077  0.52275528  0.49802965     0.27100
C40         C  0.92347219  0.45928101  0.49182126     0.27100
C41         C  0.06799963  0.54677364  0.50016172     0.27100
C42         C  0.07639543  0.48245964  0.49814686     0.27100
C43         C  0.95464173  0.58046022  0.51642168     0.35700
C44         C  0.01405966  0.59034456  0.51520678     0.35700
C45         C  0.97605456  0.41340599  0.50222184     0.35700
C46         C  0.03537661  0.42258485  0.50506703     0.35700
C47         C  0.88251696  0.50699834  0.48226598    -0.21800
C48         C  0.88793968  0.46698227  0.47826842    -0.21800
C49         C  0.10464926  0.54075599  0.48927601    -0.21800
C50         C  0.10995163  0.50020546  0.48803179    -0.21800
C51         C  0.96040466  0.61990677  0.52687791    -0.22800
C52         C  0.99818960  0.62626656  0.52597219    -0.22800
C53         C  0.99121960  0.37639765  0.50946935    -0.22800
C54         C  0.02904601  0.38220407  0.51126661    -0.22800
C55         C  0.91986444  0.56293090  0.50856176    -0.18200
C56         C  0.93820553  0.42089390  0.49647515    -0.18200
C57         C  0.07056820  0.44095412  0.50225616    -0.18200
C58         C  0.05199995  0.58458609  0.50702880    -0.18200
H59         H  0.85716792  0.52240847  0.47502093     0.14700
H60         H  0.86747973  0.44600169  0.46744208     0.14700
H61         H  0.12576962  0.56318913  0.48381504     0.14700
H62         H  0.13575136  0.48550844  0.48097153     0.14700
H63         H  0.93953842  0.64209689  0.53303435     0.13000
H64         H  0.01218533  0.65440111  0.53152306     0.13000
H65         H  0.97661114  0.34823790  0.51266854     0.13000
H66         H  0.04952840  0.35928937  0.51609879     0.13000
H67         H  0.96382495  0.49572772  0.52028411     0.26300
H68         H  0.02557494  0.50622323  0.51884990     0.26300
N69         N  0.57818812  0.50283037  0.99578750    -0.36500
N70         N  0.51820230  0.50030949  0.93810043    -0.57000
N71         N  0.46240147  0.49992296  0.99992967    -0.36500
N72         N  0.52234500  0.49896269  0.05758412    -0.57000
C73         C  0.59885639  0.49909707  0.96333670     0.27100
C74         C  0.60110846  0.49814002  0.02646504     0.27100
C75         C  0.43987820  0.49382256  0.96904901     0.27100
C76         C  0.44195344  0.49349008  0.03216927     0.27100
C77         C  0.54770142  0.50501026  0.91419317     0.35700
C78         C  0.48699275  0.50325268  0.91636280     0.35700
C79         C  0.55353216  0.50212654  0.07948916     0.35700
C80         C  0.49269620  0.50113387  0.08163988     0.35700
C81         C  0.63559338  0.49259572  0.97364304    -0.21800
C82         C  0.63700540  0.49199349  0.01321116    -0.21800
C83         C  0.40448236  0.48397393  0.98196469    -0.21800
C84         C  0.40577946  0.48378588  0.02152115    -0.21800
C85         C  0.53503420  0.51042237  0.87700652    -0.22800
C86         C  0.49681994  0.50935282  0.87838329    -0.22800
C87         C  0.54351094  0.50573829  0.11772120    -0.22800
C88         C  0.50525146  0.50512980  0.11907414    -0.22800
C89         C  0.58596471  0.50268976  0.92469967    -0.18200
C90         C  0.59102313  0.50037143  0.06608642    -0.18200
C91         C  0.45446587  0.49733971  0.07095679    -0.18200
C92         C  0.44972034  0.49850217  0.92959111    -0.18200
H93         H  0.65909085  0.48878664  0.95463535     0.14700
H94         H  0.66178913  0.48759207  0.03026751     0.14700
H95         H  0.38006740  0.47774702  0.96470344     0.14700
H96         H  0.38254658  0.47739021  0.04029344     0.14700
H97         H  0.55157878  0.51441203  0.85136741     0.13000
H98         H  0.47839565  0.51232553  0.85402135     0.13000
H99         H  0.56185772  0.50827514  0.14224432     0.13000
H100        H  0.48860458  0.50697876  0.14485018     0.13000
H101        H  0.55063087  0.51125876  0.99695007     0.26300
H102        H  0.48919128  0.51143087  0.99912299     0.26300
N103        N  0.01500094  0.45620248  0.99531802    -0.36500
N104        N  0.02034211  0.51402872  0.05747284    -0.57000
N105        N  0.02372749  0.57932209  0.00131611    -0.36500
N106        N  0.01579312  0.52118667  0.93938524    -0.57000
C107        C  0.00864004  0.43177396  0.02557705     0.27100
C108        C  0.00618700  0.43570966  0.96295539     0.27100
C109        C  0.01902160  0.60050463  0.03411823     0.27100
C110        C  0.01734518  0.60415156  0.97138016     0.27100
C111        C  0.02295008  0.48022674  0.07850716     0.35700
C112        C  0.02627096  0.54503426  0.08177423     0.35700
C113        C  0.01756085  0.48984828  0.91495251     0.35700
C114        C  0.02157672  0.55432453  0.91810192     0.35700
C115        C  0.99609963  0.39504561  0.01210300    -0.21800
C116        C  0.99449316  0.39755658  0.97271521    -0.21800
C117        C  0.01049058  0.63960225  0.02481878    -0.21800
C118        C  0.00945577  0.64187775  0.98534896    -0.21800
C119        C  0.03023239  0.48993956  0.11647271    -0.22800
C120        C  0.03227487  0.53081616  0.11854086    -0.22800
C121        C  0.02415220  0.50321801  0.87796836    -0.22800
C122        C  0.02667364  0.54395865  0.87995631    -0.22800
C123        C  0.01582869  0.44093908  0.06475425    -0.18200
C124        C  0.01076740  0.44953609  0.92480803    -0.18200
C125        C  0.01941263  0.59399014  0.93183161    -0.18200
C126        C  0.02331548  0.58601783  0.07217575    -0.18200
H127        H  0.98928915  0.36884534  0.02877157     0.14700
H128        H  0.98616269  0.37373367  0.95344333     0.14700
H129        H  0.00549180  0.66405772  0.04442362     0.14700
H130        H  0.00347897  0.66832625  0.96883009     0.14700
H131        H  0.03287877  0.46980758  0.14047863     0.13000
H132        H  0.03693348  0.54809267  0.14439604     0.13000
H133        H  0.02626802  0.48556057  0.85204583     0.13000
H134        H  0.03118158  0.56369834  0.85588218     0.13000
H135        H  0.02853455  0.48358978  0.99633031     0.26300
H136        H  0.03388559  0.55055132  0.99948841     0.26300
N137        N  0.56704631  0.00875513  0.99514891    -0.36500
N138        N  0.50391210  0.06062198  0.99661482    -0.57000
N139        N  0.45645523  0.99065118  0.00462505    -0.36500
N140        N  0.52044258  0.93937486  0.00231045    -0.57000
C141        C  0.58264083  0.04341688  0.98374271     0.27100
C142        C  0.59153972  0.97971214  0.98698557     0.27100
C143        C  0.43091067  0.01897802  0.99756720     0.27100
C144        C  0.43961260  0.95488848  0.99910638     0.27100
C145        C  0.53096989  0.08843131  0.00042137     0.35700
C146        C  0.47174177  0.07879799  0.00510508     0.35700
C147        C  0.55357465  0.92186019  0.00767422     0.35700
C148        C  0.49434953  0.91172470  0.01058229     0.35700
C149        C  0.61735183  0.03619905  0.96787275    -0.21800
C150        C  0.62300615  0.99601572  0.96999980    -0.21800
C151        C  0.39717223  0.00110254  0.98818154    -0.21800
C152        C  0.40263205  0.96064032  0.98927997    -0.21800
C153        C  0.51602769  0.12481547  0.01074243    -0.22800
C154        C  0.47824377  0.11875374  0.01355415    -0.22800
C155        C  0.54864267  0.88259554  0.01896203    -0.22800
C156        C  0.51093524  0.87608476  0.02067499    -0.22800
C157        C  0.56851853  0.08148093  0.99210158    -0.18200
C158        C  0.58783910  0.93982342  0.99859314    -0.18200
C159        C  0.45602406  0.91732636  0.00534080    -0.18200
C160        C  0.43653652  0.06034259  0.00227744    -0.18200
H161        H  0.63736319  0.05753343  0.95709988     0.14700
H162        H  0.64808462  0.98100626  0.96115863     0.14700
H163        H  0.37111460  0.01565282  0.98193281     0.14700
H164        H  0.38142271  0.93811190  0.98438212     0.14700
H165        H  0.53070405  0.15279857  0.01507881     0.13000
H166        H  0.45790730  0.14123098  0.02057529     0.13000
H167        H  0.56988520  0.86056478  0.02398131     0.13000
H168        H  0.49735210  0.84811695  0.02768028     0.13000
H169        H  0.54422817  0.00596473  0.01322078     0.26300
H170        H  0.48237560  0.99548061  0.01697079     0.26300
O171        O  0.72796047  0.77608954  0.83833067    -0.80800
O172        O  0.77998014  0.68327404  0.70144564    -0.65400
O173        O  0.77454834  0.76412274  0.77848068    -1.12000
C174        C  0.67525402  0.81123134  0.69987166     1.06100
O175        O  0.78009738  0.73209493  0.65982381    -0.78700
O176        O  0.76689647  0.80816971  0.67098123    -0.66200
Ni177      Ni  0.77462419  0.75083504  0.83119829     1.34900
C178        C  0.77507322  0.83213480  0.69780466     0.84900
O179        O  0.82174724  0.69915752  0.76557117    -0.79200
O180        O  0.82113721  0.72415502  0.82588364    -0.89500
C181        C  0.78177703  0.69522670  0.66694503     0.84400
O182        O  0.74877744  0.70123844  0.83012277    -0.67700
O183        O  0.69198589  0.79362248  0.67244342    -0.87000
C184        C  0.73747388  0.67832686  0.80365439     0.85300
C185        C  0.83598132  0.70361084  0.79916050     1.06800
H186        H  0.71346806  0.73060445  0.72352323     0.38600
O187        O  0.73479210  0.74798547  0.72038842    -1.09600
O188        O  0.76269189  0.82807973  0.73188077    -0.66300
Ni189      Ni  0.73095160  0.78928625  0.75769172     1.26300
O190        O  0.74535755  0.68468563  0.76850591    -0.66500
O191        O  0.68713055  0.81201197  0.73454889    -0.78800
C192        C  0.72431697  0.81314549  0.83308995     0.84700
O193        O  0.72734195  0.82709166  0.79935568    -0.66000
Ni194      Ni  0.73611624  0.76219660  0.66765959     1.27400
Ni195      Ni  0.77784701  0.72226078  0.74193880     1.26100
H196        H  0.79572921  0.78155312  0.77454646     0.39200
O197        O  0.27095763  0.65322604  0.76931368    -0.80800
O198        O  0.19225948  0.81502810  0.71581762    -0.65400
O199        O  0.25895448  0.72686287  0.73120926    -1.12000
C200        C  0.30851446  0.79970758  0.83234017     1.06100
O201        O  0.22949812  0.86318725  0.73792739    -0.78700
O202        O  0.29687352  0.82795248  0.72917600    -0.66200
Ni203      Ni  0.23887136  0.67372338  0.72984212     1.34900
C204        C  0.32155167  0.80113323  0.72991367     0.84900
O205        O  0.20774339  0.75065294  0.67567317    -0.79200
O206        O  0.20430784  0.68584070  0.68949205    -0.89500
C207        C  0.20036262  0.85180319  0.72025162     0.84400
O208        O  0.20267281  0.68419520  0.76780371    -0.67700
O209        O  0.30456129  0.82754796  0.80799936    -0.87000
C210        C  0.17908062  0.71203818  0.76932640     0.85300
C211        C  0.19643418  0.71559126  0.66856537     1.06800
H212        H  0.22445797  0.78799597  0.79129364     0.38600
O213        O  0.24355695  0.78888350  0.77186734    -1.09600
O214        O  0.31919910  0.77101151  0.75238469    -0.66300
Ni215      Ni  0.27745323  0.74569952  0.77941897     1.26300
O216        O  0.18286877  0.74452311  0.75041527    -0.66500
O217        O  0.29375432  0.76573657  0.82745889    -0.78800
C218        C  0.29928684  0.66478614  0.78826255     0.84700
O219        O  0.30986385  0.70104075  0.78807530    -0.66000
Ni220      Ni  0.26599697  0.84095417  0.77174243     1.27400
Ni221      Ni  0.22470079  0.77010368  0.72370966     1.26100
H222        H  0.27808067  0.72855747  0.71194034     0.39200
O223        O  0.78299141  0.28363699  0.65504476    -0.80800
O224        O  0.72415545  0.18776553  0.79319219    -0.65400
O225        O  0.73656155  0.26641475  0.71523772    -1.12000
C226        C  0.83773188  0.30819722  0.79548455     1.06100
O227        O  0.72899440  0.23605268  0.83654336    -0.78700
O228        O  0.75241188  0.31025238  0.82728804    -0.66200
Ni229      Ni  0.73870346  0.25309432  0.66246259     1.34900
C230        C  0.73994039  0.33284741  0.80139900     0.84900
O231        O  0.68682235  0.20262248  0.72748603    -0.79200
O232        O  0.69439721  0.22122792  0.66609997    -0.89500
C233        C  0.71752787  0.20177341  0.82644815     0.84400
O234        O  0.76935067  0.20763797  0.66609625    -0.67700
O235        O  0.82385915  0.28560989  0.82118177    -0.87000
C236        C  0.77615316  0.18306283  0.69252281     0.85300
C237        C  0.67638227  0.20301941  0.69235886     1.06800
H238        H  0.79536925  0.23108281  0.76897460     0.38600
O239        O  0.77474597  0.24866730  0.77367910    -1.09600
O240        O  0.74707240  0.32731690  0.76589552    -0.66300
Ni241      Ni  0.77949519  0.29126399  0.73815427     1.26300
O242        O  0.76192447  0.18591020  0.72602877    -0.66500
O243        O  0.82293633  0.31412537  0.76264768    -0.78800
C244        C  0.78720173  0.31993291  0.66415264     0.84700
O245        O  0.78341506  0.33120398  0.69875913    -0.66000
Ni246      Ni  0.77648981  0.26005202  0.82692977     1.27400
Ni247      Ni  0.73072636  0.22493751  0.75184997     1.26100
H248        H  0.71561425  0.28400841  0.71813002     0.39200
O249        O  0.30687111  0.20235145  0.68893697    -0.80800
O250        O  0.17576437  0.28170020  0.76616283    -0.65400
O251        O  0.27168658  0.26686631  0.72190074    -1.12000
C252        C  0.29943807  0.21401966  0.84422880     1.06100
O253        O  0.20444957  0.31108322  0.81441731    -0.78700
O254        O  0.27707566  0.31075313  0.82898570    -0.66200
Ni255      Ni  0.27764929  0.24664154  0.67178936     1.34900
C256        C  0.30635180  0.31387404  0.80899321     0.84900
O257        O  0.20469567  0.30033837  0.69694010    -0.79200
O258        O  0.24927039  0.29029626  0.65248589    -0.89500
C259        C  0.17475046  0.30355334  0.79607834     0.84400
O260        O  0.23489272  0.21208188  0.66815752    -0.67700
O261        O  0.27195000  0.23492003  0.85513912    -0.87000
C262        C  0.20858744  0.20317371  0.69094992     0.85300
C263        C  0.21952768  0.30697017  0.66421784     1.06800
H264        H  0.23173623  0.22080043  0.78747859     0.38600
O265        O  0.24352967  0.24681488  0.78511939    -1.09600
O266        O  0.31535356  0.28824196  0.78341852    -0.66300
Ni267      Ni  0.29202204  0.23867150  0.76455043     1.26300
O268        O  0.20327385  0.22217272  0.72235031    -0.66500
O269        O  0.31005546  0.21122383  0.80929410    -0.78800
C270        C  0.33694072  0.20580754  0.70796614     0.84700
O271        O  0.33778926  0.22695230  0.73848181    -0.66000
Ni272      Ni  0.23839208  0.27202447  0.83323739     1.27400
Ni273      Ni  0.22291659  0.27310501  0.74163842     1.26100
H274        H  0.28294277  0.29325272  0.72154704     0.39200
O275        O  0.79070447  0.72497674  0.33827484    -0.80800
O276        O  0.72421960  0.82356299  0.21063608    -0.65400
O277        O  0.74048225  0.73818184  0.28051469    -1.12000
C278        C  0.84079295  0.70906081  0.19512652     1.06100
O279        O  0.72751970  0.77933018  0.16391850    -0.78700
O280        O  0.74839859  0.70376698  0.16860640    -0.66200
Ni281      Ni  0.74222674  0.74742617  0.33421291     1.34900
C282        C  0.74219039  0.67721597  0.19366092     0.84900
O283        O  0.68725471  0.79852952  0.27446314    -0.79200
O284        O  0.69378207  0.77064981  0.33286072    -0.89500
C285        C  0.72165845  0.81461126  0.17532449     0.84400
O286        O  0.76547493  0.79857526  0.33560069    -0.67700
O287        O  0.82177475  0.72776280  0.17019018    -0.87000
C288        C  0.77340080  0.82411066  0.31024315     0.85300
C289        C  0.67533992  0.79061267  0.30829840     1.06800
H290        H  0.79581633  0.78205465  0.22653304     0.38600
O291        O  0.77594365  0.76298978  0.22241855    -1.09600
O292        O  0.75477414  0.68010317  0.22780866    -0.66300
Ni293      Ni  0.78468939  0.71928441  0.25573902     1.26300
O294        O  0.76239756  0.82036958  0.27560274    -0.66500
O295        O  0.82924144  0.70277154  0.22934575    -0.78800
C296        C  0.79746360  0.68956984  0.32806773     0.84700
O297        O  0.79286919  0.67870965  0.29345654    -0.66000
Ni298      Ni  0.77439410  0.75356445  0.16875179     1.27400
Ni299      Ni  0.73182078  0.78206051  0.24754315     1.26100
H300        H  0.72059814  0.71901916  0.27624379     0.39200
O301        O  0.23833490  0.85501686  0.26961147    -0.80800
O302        O  0.31700258  0.69293494  0.22105787    -0.65400
O303        O  0.25059299  0.78127394  0.23317156    -1.12000
C304        C  0.19685236  0.70985864  0.33438953     1.06100
O305        O  0.28053928  0.64478704  0.24347876    -0.78700
O306        O  0.21157912  0.67614908  0.23569807    -0.66200
Ni307      Ni  0.27294214  0.83336635  0.23341537     1.34900
C308        C  0.18693767  0.70283907  0.23261306     0.84900
O309        O  0.30225149  0.75604280  0.17959774    -0.79200
O310        O  0.30996700  0.81994337  0.19551192    -0.89500
C311        C  0.30930894  0.65621867  0.22539893     0.84400
O312        O  0.30580181  0.82198339  0.27456507    -0.67700
O313        O  0.20596487  0.68040836  0.31356602    -0.87000
C314        C  0.32944817  0.79424149  0.27566327     0.85300
C315        C  0.31536422  0.79050569  0.17313296     1.06800
H316        H  0.28224128  0.72345730  0.29608196     0.38600
O317        O  0.26388490  0.72062908  0.27581945    -1.09600
O318        O  0.18901847  0.73611185  0.25095959    -0.66300
Ni319      Ni  0.22850866  0.76368498  0.28010834     1.26300
O320        O  0.32619298  0.76283767  0.25495425    -0.66500
O321        O  0.20800394  0.74511431  0.32744895    -0.78800
C322        C  0.20658864  0.84576451  0.28298084     0.84700
O323        O  0.19561335  0.80940780  0.28423889    -0.66000
Ni324      Ni  0.24417730  0.66732564  0.27754206     1.27400
Ni325      Ni  0.28440921  0.73770501  0.22765296     1.26100
H326        H  0.23255847  0.78009720  0.21269424     0.39200
O327        O  0.72646353  0.22439841  0.15461518    -0.80800
O328        O  0.79484987  0.31564061  0.28837451    -0.65400
O329        O  0.77661000  0.23749964  0.21101449    -1.12000
C330        C  0.67881317  0.19750153  0.29723296     1.06100
O331        O  0.79281636  0.26577461  0.32956377    -0.78700
O332        O  0.76638393  0.19318452  0.32219675    -0.66200
Ni333      Ni  0.77347744  0.25049720  0.15856736     1.34900
C334        C  0.77691830  0.17076832  0.29515837     0.84900
O335        O  0.82912827  0.29906926  0.22085293    -0.79200
O336        O  0.82065854  0.27749120  0.16016049    -0.89500
C337        C  0.80254915  0.30096456  0.32096603     0.84400
O338        O  0.74770483  0.29941430  0.16280094    -0.67700
O339        O  0.69526238  0.22012156  0.32158653    -0.87000
C340        C  0.74124411  0.32387776  0.18967793     0.85300
C341        C  0.83963289  0.29582321  0.18581858     1.06800
H342        H  0.72157535  0.27436067  0.26821886     0.38600
O343        O  0.74199406  0.25599831  0.27131805    -1.09600
O344        O  0.76729849  0.17621654  0.26037506    -0.66300
Ni345      Ni  0.73398552  0.21366089  0.23584018     1.26300
O346        O  0.75421661  0.31917328  0.22349183    -0.66500
O347        O  0.69137998  0.19130757  0.26324687    -0.78800
C348        C  0.72224999  0.18766572  0.16173371     0.84700
O349        O  0.72662273  0.17482627  0.19571203    -0.66000
Ni350      Ni  0.74379864  0.24395149  0.32413529     1.27400
Ni351      Ni  0.78545370  0.27868473  0.24729116     1.26100
H352        H  0.79710414  0.21937336  0.21299529     0.39200
N353        N  0.93613470  0.00767348  0.49868634    -0.36500
N354        N  0.99300871  0.01246770  0.55943602    -0.57000
N355        N  0.05185363  0.01709359  0.50050144    -0.36500
N356        N  0.99523808  0.00819154  0.43983954    -0.57000
C357        C  0.91401908  0.00277931  0.52999689     0.27100
C358        C  0.91513771  0.00102968  0.46680797     0.27100
C359        C  0.07327563  0.01509474  0.53257456     0.27100
C360        C  0.07444242  0.01305016  0.46948393     0.27100
C361        C  0.96212938  0.01363760  0.58184213     0.35700
C362        C  0.02284681  0.01825879  0.58279610     0.35700
C363        C  0.96507501  0.00860432  0.41634567     0.35700
C364        C  0.02583001  0.01258683  0.41731515     0.35700
C365        C  0.87826973  0.99336519  0.51770089    -0.21800
C366        C  0.87895642  0.99232365  0.47810403    -0.21800
C367        C  0.11009952  0.01040381  0.52166306    -0.21800
C368        C  0.11083033  0.00915843  0.48211714    -0.21800
C369        C  0.97258489  0.01967349  0.61972506    -0.22800
C370        C  0.01077142  0.02257470  0.62031992    -0.22800
C371        C  0.97676883  0.01258369  0.37863940    -0.22800
C372        C  0.01497447  0.01507900  0.37925967    -0.22800
C373        C  0.92463580  0.00791564  0.56928780    -0.18200
C374        C  0.92712566  0.00408107  0.42779567    -0.18200
C375        C  0.06356899  0.01360289  0.43005404    -0.18200
C376        C  0.06098888  0.01826456  0.57142714    -0.18200
H377        H  0.85402753  0.98800524  0.53539881     0.14700
H378        H  0.85532640  0.98602042  0.45974155     0.14700
H379        H  0.13409283  0.00807621  0.54026326     0.14700
H380        H  0.13547124  0.00566327  0.46465624     0.14700
H381        H  0.95461214  0.02152616  0.64453659     0.13000
H382        H  0.02771883  0.02713212  0.64564767     0.13000
H383        H  0.95959782  0.01342517  0.35315949     0.13000
H384        H  0.03273014  0.01836149  0.35440035     0.13000
H385        H  0.96321224  0.01820745  0.49891605     0.26300
H386        H  0.02391322  0.02399553  0.49976869     0.26300
C387        C  0.13119044  0.98278089  0.35370851     0.80400
N388        N  0.10515408  0.98109649  0.38220571    -0.77900
C389        C  0.09359400  0.01526902  0.40006618     0.82800
N390        N  0.10837223  0.05129645  0.38924116    -0.77900
C391        C  0.13412619  0.05359584  0.36052575     0.82900
N392        N  0.14486643  0.01918992  0.34327323    -0.79600
O393        O  0.20906760  0.31122709  0.19402781    -0.80800
O394        O  0.34249580  0.23130430  0.26861421    -0.65400
O395        O  0.24779665  0.24693262  0.22180938    -1.12000
C396        C  0.22012544  0.30261433  0.34391654     1.06100
O397        O  0.31290140  0.20309691  0.31693710    -0.78700
O398        O  0.23991348  0.20707373  0.33581546    -0.66200
Ni399      Ni  0.24248266  0.27214787  0.17383703     1.34900
C400        C  0.21342128  0.19903712  0.31288956     0.84900
O401        O  0.31545614  0.21490546  0.19780826    -0.79200
O402        O  0.27593840  0.23478015  0.15127836    -0.89500
C403        C  0.34285071  0.20937837  0.29834647     0.84400
O404        O  0.28179710  0.31035866  0.17664445    -0.67700
O405        O  0.24940747  0.28519995  0.35581701    -0.87000
C406        C  0.31017253  0.31495473  0.19781641     0.85300
C407        C  0.30433498  0.21564116  0.16295578     1.06800
H408        H  0.28487696  0.29350064  0.28765252     0.38600
O409        O  0.27439748  0.26671583  0.28601633    -1.09600
O410        O  0.20675621  0.22000847  0.28306355    -0.66300
Ni411      Ni  0.22567375  0.27188204  0.26541966     1.26300
O412        O  0.31754018  0.29161754  0.22566210    -0.66500
O413        O  0.20620422  0.29768641  0.31043720    -0.78800
C414        C  0.17847798  0.30255027  0.21031679     0.84700
O415        O  0.17870045  0.28011493  0.23978011    -0.66000
Ni416      Ni  0.28059375  0.24448063  0.33520839     1.27400
Ni417      Ni  0.29618896  0.24075685  0.24286270     1.26100
H418        H  0.23706692  0.22051519  0.21895011     0.39200
C419        C  0.97964772  0.36267999  0.13109449     0.80400
N420        N  0.01158984  0.35074118  0.14817365    -0.77900
C421        C  0.04507434  0.36650818  0.13807966     0.82800
N422        N  0.04623599  0.39542100  0.11069449    -0.77900
C423        C  0.01446865  0.40782444  0.09322932     0.82900
N424        N  0.98123179  0.39127042  0.10349268    -0.79600
C425        C  0.36171248  0.12462442  0.03793162     0.80400
N426        N  0.34664819  0.13671618  0.00445108    -0.77900
C427        C  0.36128152  0.12601087  0.97022345     0.82800
N428        N  0.38998453  0.10014805  0.96953456    -0.77900
C429        C  0.40381155  0.08580414  0.00302079     0.82900
N430        N  0.39032879  0.09869783  0.03724171    -0.79600
C431        C  0.54172259  0.12668191  0.35546256     0.80400
N432        N  0.50998182  0.14275346  0.34149363    -0.77900
C433        C  0.47627628  0.13258251  0.35623043     0.82800
N434        N  0.47439479  0.10434010  0.38414541    -0.77900
C435        C  0.50582628  0.08727454  0.39799745     0.82900
N436        N  0.53962672  0.09908709  0.38409042    -0.79600
C437        C  0.85970035  0.96598492  0.35367995     0.80400
N438        N  0.84965662  0.00068127  0.33711176    -0.77900
C439        C  0.86245492  0.03646150  0.34986317     0.82800
N440        N  0.88701665  0.03733277  0.37972113    -0.77900
C441        C  0.89815434  0.00276943  0.39670928     0.82900
N442        N  0.88392409  0.96713940  0.38394013    -0.79600
C443        C  0.64623127  0.14005608  0.95971611     0.80400
N444        N  0.61022342  0.12795850  0.96118777    -0.77900
C445        C  0.59569611  0.11408353  0.99444131     0.82800
N446        N  0.61607224  0.11666375  0.02708921    -0.77900
C447        C  0.65159117  0.13049095  0.02650848     0.82900
N448        N  0.66691981  0.14105055  0.99228942    -0.79600
C449        C  0.66268168  0.53546651  0.13723368     0.80400
N450        N  0.67451480  0.50007565  0.15124957    -0.71500
C451        C  0.66122983  0.46477353  0.13769425     0.82800
N452        N  0.63453607  0.46502024  0.10975964    -0.77900
C453        C  0.62161005  0.50023099  0.09556586     0.82900
N454        N  0.63593777  0.53536644  0.10934756    -0.79600
C455        C  0.86222844  0.36202118  0.46007797     0.80400
N456        N  0.89799203  0.37465847  0.46314366    -0.77900
C457        C  0.91128659  0.38807684  0.49710017     0.82800
N458        N  0.88962427  0.38537111  0.52863168    -0.77900
C459        C  0.85403266  0.37190069  0.52652127     0.82900
N460        N  0.84003132  0.36090898  0.49170574    -0.79600
C461        C  0.38977693  0.52628960  0.15080166     0.80400
N462        N  0.41339474  0.52880728  0.12012886    -0.77900
C463        C  0.42607907  0.49489767  0.10258445     0.82800
N464        N  0.41434606  0.45845716  0.11553635    -0.77900
C465        C  0.39102927  0.45566579  0.14629584     0.82900
N466        N  0.37955171  0.48957924  0.16363291    -0.79600
C467        C  0.98554257  0.64937793  0.15016498     0.80400
N468        N  0.98781654  0.62572623  0.11859075    -0.77900
C469        C  0.02145079  0.61513780  0.10437354     0.82800
N470        N  0.05303534  0.62921775  0.12142257    -0.77900
C471        C  0.05119077  0.65399497  0.15250211     0.82900
N472        N  0.01720029  0.66341738  0.16698986    -0.79600
C473        C  0.39607884  0.83373697  0.03665839     0.80400
N474        N  0.38220152  0.82117868  0.00238086    -0.77900
C475        C  0.39256930  0.83903658  0.96912017     0.82800
N476        N  0.41788935  0.86914824  0.97026515    -0.77900
C477        C  0.43202914  0.88181793  0.00417758     0.82900
N478        N  0.42105927  0.86427320  0.03721317    -0.79600
C479        C  0.53040993  0.83918293  0.36458658     0.80400
N480        N  0.52746330  0.86662065  0.39318467    -0.77900
C481        C  0.49359902  0.87944927  0.40491549     0.82800
N482        N  0.46233073  0.86476467  0.38768182    -0.77900
C483        C  0.46467450  0.83718436  0.35890788     0.82900
N484        N  0.49893023  0.82484003  0.34757215    -0.79600
C485        C  0.10995742  0.67093411  0.53648583     0.80400
N486        N  0.08664753  0.63897443  0.53763007    -0.77900
C487        C  0.07610185  0.62019646  0.50493275     0.82800
N488        N  0.08899662  0.63328718  0.47061156    -0.77900
C489        C  0.11214480  0.66546892  0.46894307     0.82900
N490        N  0.12200100  0.68428803  0.50193851    -0.79600
C491        C  0.66859106  0.88890425  0.03993157     0.80400
N492        N  0.68753063  0.87887922  0.00755364    -0.77900
C493        C  0.67331282  0.88668040  0.97223151     0.82800
N494        N  0.64018915  0.90536623  0.96961310    -0.77900
C495        C  0.62162279  0.91620551  0.00163837     0.82900
N496        N  0.63575796  0.90802515  0.03666179    -0.79600
C497        C  0.14911093  0.38166019  0.53751288     0.80400
N498        N  0.16470884  0.36967192  0.50408546    -0.77900
C499        C  0.14856600  0.37870090  0.47007757     0.82800
N500        N  0.11765916  0.40150191  0.46945545    -0.77900
C501        C  0.10313015  0.41515363  0.50283251     0.82900
N502        N  0.11823504  0.40446629  0.53687567    -0.79600
C503        C  0.97369215  0.38429283  0.84692672     0.80400
N504        N  0.97533866  0.40912934  0.87784968    -0.77900
C505        C  0.00873601  0.42015032  0.89301970     0.82800
N506        N  0.04061589  0.40649788  0.87700694    -0.77900
C507        C  0.03944861  0.38182911  0.84598531     0.82900
N508        N  0.00593999  0.37114789  0.83122203    -0.79600
C509        C  0.12709653  0.98711049  0.64851513     0.80400
N510        N  0.10219648  0.98578359  0.61899048    -0.77900
C511        C  0.08994765  0.02013423  0.60246635     0.82800
N512        N  0.10324144  0.05611448  0.61539723    -0.77900
C513        C  0.12779768  0.05799864  0.64532658     0.82900
N514        N  0.13924590  0.02336120  0.66148683    -0.79600
C515        C  0.53698775  0.13401139  0.63917767     0.80400
N516        N  0.53379520  0.10750384  0.60975536    -0.77900
C517        C  0.49969949  0.09403914  0.59851567     0.82800
N518        N  0.46875044  0.10762680  0.61657686    -0.77900
C519        C  0.47153308  0.13441291  0.64593059     0.82900
N520        N  0.50584511  0.14703751  0.65712705    -0.79600
C521        C  0.37782280  0.53309626  0.85971888     0.80400
N522        N  0.40553686  0.53329248  0.88645985    -0.77900
C523        C  0.41917881  0.49809173  0.90014512     0.82800
N524        N  0.40520531  0.46265592  0.88637929    -0.77900
C525        C  0.37754534  0.46219020  0.85942276     0.82900
N526        N  0.36453813  0.49757314  0.84659010    -0.79600
C527        C  0.85797238  0.97076892  0.64411785     0.80400
N528        N  0.88265374  0.97144776  0.61432585    -0.77900
C529        C  0.89478090  0.00700640  0.59949358     0.82800
N530        N  0.88162854  0.04191482  0.61451249    -0.77900
C531        C  0.85679746  0.04146758  0.64418753     0.82900
N532        N  0.84564677  0.00586425  0.65832201    -0.79600
C533        C  0.98119133  0.65560725  0.85315639     0.80400
N534        N  0.01305864  0.67096586  0.83797414    -0.77900
C535        C  0.04682014  0.66386480  0.85421438     0.82800
N536        N  0.04832881  0.64128555  0.88658356    -0.77900
C537        C  0.01678580  0.62598109  0.90249440     0.82900
N538        N  0.98347492  0.63292689  0.88540495    -0.79600
C539        C  0.52604211  0.85498932  0.65245190     0.80400
N540        N  0.52256578  0.87870210  0.62104792    -0.77900
C541        C  0.48873151  0.88805362  0.60660816     0.82800
N542        N  0.45758412  0.87373170  0.62410751    -0.77900
C543        C  0.45994799  0.84972172  0.65559946     0.82900
N544        N  0.49445226  0.84056617  0.66958556    -0.79600
C545        C  0.64846407  0.53884243  0.84595602     0.80400
N546        N  0.62574187  0.53835328  0.87734087    -0.77900
C547        C  0.61407369  0.50311783  0.89287670     0.82800
N548        N  0.62668533  0.46821650  0.87775990    -0.77900
C549        C  0.64927731  0.46832017  0.84629712     0.82900
N550        N  0.65934215  0.50369770  0.83028972    -0.79600
C551        C  0.83155455  0.61019494  0.53457324     0.80400
N552        N  0.86555313  0.59333450  0.53773642    -0.77900
C553        C  0.88721999  0.58837370  0.50646213     0.82800
N554        N  0.87474032  0.59942591  0.47160055    -0.77900
C555        C  0.84033162  0.61475660  0.46745686     0.82900
N556        N  0.81877340  0.62029557  0.49905593    -0.79600
C557        C  0.20378778  0.36829162  0.42979459    -0.12100
C558        C  0.16528843  0.36418988  0.43435453     0.04900
C559        C  0.14409230  0.34464592  0.40576611    -0.07400
C560        C  0.16214902  0.32689097  0.37456971    -0.08200
C561        C  0.20104163  0.32871746  0.37147561    -0.02700
C562        C  0.22166807  0.35147938  0.39827950     0.04100
N563        N  0.26071402  0.35826024  0.39346671     0.66600
H564        H  0.22009594  0.38456431  0.45092903     0.15500
H565        H  0.14597969  0.30953898  0.35413342     0.15200
N566        N  0.10476619  0.33959517  0.40971214     0.74300
O567        O  0.27179095  0.38461972  0.37028284    -0.39100
O568        O  0.28341763  0.34348581  0.41695882    -0.39100
O569        O  0.08311995  0.35948898  0.38885016    -0.39800
O570        O  0.09201462  0.31083103  0.42905060    -0.39900
C571        C  0.36778951  0.41155502  0.19948617    -0.12100
C572        C  0.37557417  0.41669129  0.16008801     0.04900
C573        C  0.36481906  0.38607312  0.13450585    -0.07400
C574        C  0.34456857  0.35301863  0.14798994    -0.08200
C575        C  0.33597318  0.34822673  0.18705314    -0.02700
C576        C  0.34887774  0.37738009  0.21316139     0.04100
N577        N  0.34091217  0.37408149  0.25314987     0.66600
H578        H  0.37593967  0.43456196  0.21978682     0.15500
H579        H  0.33427618  0.33143990  0.12741565     0.15200
N580        N  0.37187297  0.38925009  0.09432702     0.74300
O581        O  0.36228539  0.35432380  0.27443242    -0.39100
O582        O  0.31652356  0.39603653  0.26809256    -0.39100
O583        O  0.39705622  0.36842903  0.07928219    -0.39800
O584        O  0.34900978  0.40711818  0.07313739    -0.39900
C585        C  0.37768261  0.17300982  0.34885899    -0.12100
C586        C  0.37756918  0.18991010  0.31196700     0.04900
C587        C  0.41055760  0.18830590  0.29001867    -0.07400
C588        C  0.44229684  0.16983835  0.30505726    -0.08200
C589        C  0.44214367  0.15256615  0.34182778    -0.02700
C590        C  0.40936922  0.15490038  0.36397075     0.04100
N591        N  0.40817409  0.14092298  0.40263332     0.66600
H592        H  0.35313801  0.17460483  0.36679494     0.15500
H593        H  0.46706001  0.16844256  0.28742714     0.15200
N594        N  0.41220238  0.20433417  0.25213204     0.74300
O595        O  0.42209801  0.16205656  0.42909055    -0.39100
O596        O  0.38791860  0.11130641  0.41106649    -0.39100
O597        O  0.43073702  0.23578734  0.24591340    -0.39800
O598        O  0.40048124  0.18376066  0.22419687    -0.39900
C599        C  0.33274930  0.15280516  0.13908560    -0.12100
C600        C  0.32499290  0.19337562  0.13370631     0.04900
C601        C  0.33420183  0.21160719  0.09857303    -0.07400
C602        C  0.34802739  0.18864860  0.06868737    -0.08200
C603        C  0.35280716  0.14749427  0.07274042    -0.02700
C604        C  0.34668958  0.12969836  0.10874374     0.04100
N605        N  0.35194177  0.08794547  0.11410143     0.66600
H606        H  0.32614040  0.13862200  0.16613979     0.15500
H607        H  0.35416325  0.20310638  0.04163624     0.15200
N608        N  0.33020238  0.25354032  0.09275682     0.74300
O609        O  0.38248773  0.07556642  0.12708194    -0.39100
O610        O  0.32438873  0.06445378  0.11208852    -0.39100
O611        O  0.35912561  0.27460169  0.08820849    -0.39800
O612        O  0.29935560  0.26681476  0.08144484    -0.39900
C613        C  0.14674035  0.34361740  0.16083588    -0.12100
C614        C  0.14370531  0.32001894  0.19410403     0.04900
C615        C  0.10791177  0.31322820  0.20949838    -0.07400
C616        C  0.07648234  0.32906307  0.19116311    -0.08200
C617        C  0.07957866  0.35190801  0.15734517    -0.02700
C618        C  0.11550534  0.35932886  0.14251188     0.04100
N619        N  0.12099704  0.38141789  0.10798058     0.66600
H620        H  0.17371357  0.34951886  0.14811837     0.15500
H621        H  0.04938385  0.32314681  0.20358440     0.15200
N622        N  0.10276257  0.29019718  0.24349322     0.74300
O623        O  0.13140515  0.41741212  0.10982839    -0.39100
O624        O  0.12230914  0.36320888  0.07629934    -0.39100
O625        O  0.09897029  0.30768636  0.27531988    -0.39800
O626        O  0.09508450  0.25350553  0.24077882    -0.39900
C627        C  0.17202287  0.09354624  0.31298418    -0.12100
C628        C  0.15140010  0.09266987  0.34751720     0.04900
C629        C  0.14963220  0.12856707  0.36904323    -0.07400
C630        C  0.16892729  0.16309959  0.35659898    -0.08200
C631        C  0.18967709  0.16347661  0.32238353    -0.02700
C632        C  0.19092575  0.12816440  0.30050102     0.04100
N633        N  0.21347361  0.12611840  0.26686215     0.66600
H634        H  0.17429676  0.06682905  0.29564161     0.15500
H635        H  0.16813139  0.18978125  0.37419154     0.15200
N636        N  0.12954029  0.13033264  0.40430943     0.74300
O637        O  0.24665433  0.11444559  0.26945519    -0.39100
O638        O  0.19859996  0.12930027  0.23426088    -0.39100
O639        O  0.14686087  0.12825142  0.43570718    -0.39800
O640        O  0.09595406  0.14094981  0.40416711    -0.39900
C641        C  0.86770074  0.32018107  0.40251629    -0.12100
C642        C  0.84836493  0.34981084  0.42228199     0.04900
C643        C  0.81754135  0.36806516  0.40488378    -0.07400
C644        C  0.80531365  0.35489094  0.36882025    -0.08200
C645        C  0.82310086  0.32322051  0.35034666    -0.02700
C646        C  0.85498987  0.30627683  0.36710710     0.04100
N647        N  0.87338683  0.27326180  0.34962211     0.66600
H648        H  0.89185953  0.30649934  0.41544185     0.15500
H649        H  0.78030062  0.36743266  0.35657718     0.15200
N650        N  0.79812696  0.39950893  0.42365912     0.74300
O651        O  0.90203176  0.27959967  0.32962285    -0.39100
O652        O  0.86698237  0.23849900  0.36183329    -0.39100
O653        O  0.80562155  0.43522201  0.41514740    -0.39800
O654        O  0.76851126  0.39161658  0.44156046    -0.39900
C655        C  0.69814388  0.35833074  0.14434465    -0.12100
C656        C  0.71760244  0.35905395  0.17955081     0.04900
C657        C  0.71519525  0.39384101  0.20233707    -0.07400
C658        C  0.69579506  0.42724148  0.18865801    -0.08200
C659        C  0.67787167  0.42699551  0.15258163    -0.02700
C660        C  0.67855415  0.39146662  0.13086924     0.04100
N661        N  0.66139639  0.38902467  0.09397374     0.66600
H662        H  0.69875431  0.33198473  0.12630069     0.15500
H663        H  0.69523707  0.45384852  0.20635286     0.15200
N664        N  0.73301553  0.39633946  0.23890901     0.74300
O665        O  0.67980346  0.39847510  0.06453142    -0.39100
O666        O  0.63062958  0.37101134  0.09024553    -0.39100
O667        O  0.76410903  0.41382705  0.24197871    -0.39800
O668        O  0.71492466  0.38754662  0.26874423    -0.39900
C669        C  0.70827704  0.15416784  0.06066279    -0.12100
C670        C  0.67281837  0.13641350  0.06279467     0.04900
C671        C  0.65792686  0.12761264  0.09961422    -0.07400
C672        C  0.67679110  0.14047755  0.13271010    -0.08200
C673        C  0.71007140  0.16207749  0.12981303    -0.02700
C674        C  0.72678329  0.16707095  0.09360308     0.04100
N675        N  0.76160822  0.18763691  0.08970188     0.66600
H676        H  0.72115906  0.16010718  0.03317669     0.15500
H677        H  0.66381576  0.13650649  0.16044643     0.15200
N678        N  0.62284004  0.10782787  0.10418153     0.74300
O679        O  0.79153781  0.16883552  0.09413407    -0.39100
O680        O  0.76252197  0.22224137  0.07559656    -0.39100
O681        O  0.62204219  0.07138978  0.11307503    -0.39800
O682        O  0.59372842  0.12826426  0.10774242    -0.39900
C683        C  0.82507279  0.14211958  0.33825765    -0.12100
C684        C  0.80199892  0.13754778  0.30581787     0.04900
C685        C  0.80262938  0.10114822  0.28572018    -0.07400
C686        C  0.82454849  0.06982449  0.29926546    -0.08200
C687        C  0.84577034  0.07334010  0.33324016    -0.02700
C688        C  0.84697058  0.11077356  0.35188181     0.04100
N689        N  0.86919649  0.11735750  0.38531513     0.66600
H690        H  0.82566479  0.17017171  0.35373825     0.15500
H691        H  0.82363820  0.04192895  0.28369146     0.15200
N692        N  0.77881860  0.09422713  0.25350919     0.74300
O693        O  0.90189402  0.13084831  0.38175574    -0.39100
O694        O  0.85404782  0.11725447  0.41793498    -0.39100
O695        O  0.79214099  0.09488017  0.22006311    -0.39800
O696        O  0.74619704  0.08114990  0.25877641    -0.39900
C697        C  0.63884608  0.17201405  0.35053078    -0.12100
C698        C  0.64401054  0.17707278  0.31072074     0.04900
C699        C  0.61581854  0.16290668  0.28573612    -0.07400
C700        C  0.58318157  0.14555308  0.30083139    -0.08200
C701        C  0.57802164  0.14137579  0.34059628    -0.02700
C702        C  0.60642618  0.15451382  0.36547578     0.04100
N703        N  0.60160857  0.15309416  0.40611443     0.66600
H704        H  0.65995650  0.18227939  0.37053565     0.15500
H705        H  0.56140273  0.13585116  0.28132187     0.15200
N706        N  0.61908208  0.16719137  0.24514839     0.74300
O707        O  0.61788937  0.12667566  0.42537513    -0.39100
O708        O  0.58618863  0.18176596  0.42317961    -0.39100
O709        O  0.62346404  0.13662644  0.22451635    -0.39800
O710        O  0.61040230  0.19975978  0.22965170    -0.39900
C711        C  0.87917115  0.32556694  0.13436392    -0.12100
C712        C  0.87540710  0.31427545  0.17305477     0.04900
C713        C  0.90633381  0.31918795  0.19761341    -0.07400
C714        C  0.93980679  0.33505815  0.18336755    -0.08200
C715        C  0.94346983  0.34628395  0.14471401    -0.02700
C716        C  0.91268653  0.34115473  0.12006413     0.04100
N717        N  0.91561262  0.34919304  0.07995810     0.66600
H718        H  0.85603210  0.32170979  0.11472362     0.15500
H719        H  0.96318094  0.33845092  0.20278874     0.15200
N720        N  0.90492968  0.30647675  0.23659514     0.74300
O721        O  0.92816873  0.32274572  0.05776852    -0.39100
O722        O  0.89955596  0.37915791  0.06604605    -0.39100
O723        O  0.91432499  0.27137527  0.24487715    -0.39800
O724        O  0.90195313  0.33213971  0.26291741    -0.39900
C725        C  0.15552647  0.66304050  0.36972841    -0.12100
C726        C  0.17213795  0.70116661  0.36754559     0.04900
C727        C  0.16596647  0.72845135  0.39773513    -0.07400
C728        C  0.14495385  0.71665697  0.42962931    -0.08200
C729        C  0.12995540  0.67785690  0.43249522    -0.02700
C730        C  0.13495462  0.65111997  0.40165309     0.04100
N731        N  0.12178499  0.61080647  0.40317780     0.66600
H732        H  0.15932934  0.64148047  0.34688879     0.15500
H733        H  0.14129389  0.73780921  0.45285061     0.15200
N734        N  0.18206485  0.76755459  0.39748957     0.74300
O735        O  0.09067333  0.60193156  0.38853725    -0.39100
O736        O  0.14424794  0.58336887  0.41122998    -0.39100
O737        O  0.16157077  0.79723302  0.39151572    -0.39800
O738        O  0.21426797  0.77296606  0.41107765    -0.39900
C739        C  0.39775278  0.78722383  0.28673259    -0.12100
C740        C  0.36313967  0.80043726  0.29995597     0.04900
C741        C  0.36202795  0.82325232  0.33405874    -0.07400
C742        C  0.39510725  0.83380362  0.35309727    -0.08200
C743        C  0.43011628  0.82233816  0.33897658    -0.02700
C744        C  0.43097270  0.79795576  0.30557341     0.04100
N745        N  0.46525564  0.78523687  0.28908039     0.66600
H746        H  0.39928225  0.76996170  0.26046057     0.15500
H747        H  0.39317281  0.85167034  0.37893511     0.15200
N748        N  0.32740722  0.83580198  0.34997626     0.74300
O749        O  0.47798292  0.75145342  0.29757995    -0.39100
O750        O  0.47858187  0.80388329  0.26080755    -0.39100
O751        O  0.31079917  0.81377023  0.37384328    -0.39800
O752        O  0.31703734  0.87134765  0.34560495    -0.39900
C753        C  0.35025977  0.79038671  0.07074318    -0.12100
C754        C  0.37939199  0.81867082  0.07286538     0.04900
C755        C  0.38955033  0.83411504  0.10930026    -0.07400
C756        C  0.36880026  0.82366558  0.14163454    -0.08200
C757        C  0.33854755  0.79717303  0.13892739    -0.02700
C758        C  0.33000479  0.77945963  0.10329883     0.04100
N759        N  0.29914310  0.75263507  0.09908014     0.66600
H760        H  0.34205800  0.77755148  0.04344115     0.15500
H761        H  0.37625546  0.83667879  0.16911490     0.15200
N762        N  0.42042260  0.86082124  0.11419528     0.74300
O763        O  0.26851610  0.76554808  0.08679585    -0.39100
O764        O  0.30450104  0.71552603  0.10024908    -0.39100
O765        O  0.41475507  0.89758012  0.11901917    -0.39800
O766        O  0.45234582  0.84694525  0.12054073    -0.39900
C767        C  0.12027309  0.71423926  0.21436562    -0.12100
C768        C  0.15344168  0.69315808  0.20862460     0.04900
C769        C  0.15276885  0.66042656  0.18270862    -0.07400
C770        C  0.11957767  0.64905168  0.16442283    -0.08200
C771        C  0.08613239  0.66920449  0.17113649    -0.02700
C772        C  0.08694656  0.70268727  0.19608318     0.04100
N773        N  0.05435009  0.72566820  0.20304505     0.66600
H774        H  0.11983510  0.73934626  0.23399065     0.15500
H775        H  0.12000399  0.62343167  0.14542221     0.15200
N776        N  0.18541723  0.63780260  0.17481002     0.74300
O777        O  0.03816785  0.72331663  0.23506164    -0.39100
O778        O  0.04577075  0.75313308  0.18012861    -0.39100
O779        O  0.19018731  0.60492687  0.19154250    -0.39800
O780        O  0.20520910  0.64654626  0.14613446    -0.39900
C781        C  0.35597706  0.55625758  0.20627809    -0.12100
C782        C  0.37354827  0.56218955  0.17061628     0.04900
C783        C  0.37237405  0.60096632  0.15460563    -0.07400
C784        C  0.35278086  0.63174751  0.17349350    -0.08200
C785        C  0.33375517  0.62483904  0.20820725    -0.02700
C786        C  0.33618909  0.58651768  0.22473995     0.04100
N787        N  0.31850202  0.57746191  0.26041485     0.66600
H788        H  0.35673444  0.52733964  0.21999997     0.15500
H789        H  0.35127914  0.66080968  0.16012049     0.15200
N790        N  0.38931334  0.60930967  0.11845890     0.74300
O791        O  0.28681960  0.56092265  0.26035493    -0.39100
O792        O  0.33748978  0.57785466  0.29085323    -0.39100
O793        O  0.36914351  0.61429641  0.08927184    -0.39800
O794        O  0.42334329  0.61876342  0.11713408    -0.39900
C795        C  0.17495996  0.95169883  0.30695143    -0.12100
C796        C  0.14683416  0.94602174  0.33443025     0.04900
C797        C  0.13572302  0.90608547  0.34228044    -0.07400
C798        C  0.15405320  0.87361035  0.32436088    -0.08200
C799        C  0.18354532  0.87977966  0.29834237    -0.02700
C800        C  0.19283715  0.91986236  0.28899408     0.04100
N801        N  0.22053790  0.92932367  0.26094621     0.66600
H802        H  0.18381413  0.98150585  0.29902753     0.15500
H803        H  0.14563359  0.84346977  0.33148805     0.15200
N804        N  0.10601778  0.89774152  0.36826177     0.74300
O805        O  0.21172966  0.93010139  0.22593385    -0.39100
O806        O  0.25137579  0.94394991  0.27150422    -0.39100
O807        O  0.07365429  0.89166825  0.35533923    -0.39800
O808        O  0.11327314  0.88894184  0.40258508    -0.39900
C809        C  0.78284727  0.64341731  0.38040698    -0.12100
C810        C  0.81000845  0.66222810  0.35782411     0.04900
C811        C  0.84714636  0.66329675  0.37036464    -0.07400
C812        C  0.85648620  0.64629994  0.40553501    -0.08200
C813        C  0.82904186  0.62937856  0.42932721    -0.02700
C814        C  0.79198038  0.62724962  0.41613878     0.04100
N815        N  0.76327665  0.60936186  0.43877146     0.66600
H816        H  0.75398898  0.64351657  0.37134442     0.15500
H817        H  0.88511267  0.64836381  0.41518244     0.15200
N818        N  0.87506637  0.68433228  0.34917423     0.74300
O819        O  0.74390223  0.63096447  0.46053327    -0.39100
O820        O  0.75234546  0.57438784  0.43104337    -0.39100
O821        O  0.88224414  0.72028009  0.35733137    -0.39800
O822        O  0.89711038  0.66518427  0.32801882    -0.39900
C823        C  0.69917875  0.57211230  0.18782279    -0.12100
C824        C  0.68023605  0.57314809  0.15238076     0.04900
C825        C  0.68015427  0.60949926  0.13204867    -0.07400
C826        C  0.69945343  0.64293643  0.14664493    -0.08200
C827        C  0.71942305  0.64153378  0.18149867    -0.02700
C828        C  0.71837477  0.60555774  0.20248252     0.04100
N829        N  0.73752508  0.60185046  0.23819737     0.66600
H830        H  0.69943918  0.54488379  0.20445181     0.15500
H831        H  0.69939666  0.67007601  0.12988150     0.15200
N832        N  0.66229486  0.61265133  0.09558370     0.74300
O833        O  0.72124914  0.61121225  0.26893555    -0.39100
O834        O  0.76757630  0.58275450  0.23963737    -0.39100
O835        O  0.63297446  0.63278717  0.09244188    -0.39800
O836        O  0.67892281  0.60100732  0.06578462    -0.39900
C837        C  0.67332397  0.85515310  0.14415212    -0.12100
C838        C  0.71055634  0.84373923  0.14638220     0.04900
C839        C  0.73463668  0.85177347  0.11550730    -0.07400
C840        C  0.72069906  0.86829193  0.08183452    -0.08200
C841        C  0.68275788  0.87690449  0.07809773    -0.02700
C842        C  0.65912438  0.87155877  0.11030351     0.04100
N843        N  0.62004022  0.87862659  0.10804396     0.66600
H844        H  0.65449438  0.84816502  0.16748425     0.15500
H845        H  0.73955237  0.87306937  0.05802537     0.15200
N846        N  0.77304190  0.84122299  0.11729160     0.74300
O847        O  0.59851072  0.85101796  0.09686349    -0.39100
O848        O  0.60661561  0.90915016  0.12389554    -0.39100
O849        O  0.78478805  0.81238516  0.09752315    -0.39800
O850        O  0.79603068  0.86471581  0.13309655    -0.39900
C851        C  0.63391794  0.81595258  0.35968008    -0.12100
C852        C  0.63837828  0.80514914  0.32099331     0.04900
C853        C  0.60697250  0.80556964  0.29670909    -0.07400
C854        C  0.57209744  0.81640476  0.31144763    -0.08200
C855        C  0.56765920  0.82703050  0.35025136    -0.02700
C856        C  0.59917820  0.82659117  0.37444929     0.04100
N857        N  0.59613750  0.83467303  0.41459014     0.66600
H858        H  0.65756523  0.81537195  0.37897106     0.15500
H859        H  0.54836927  0.81650954  0.29231347     0.15200
N860        N  0.60952406  0.79304953  0.25762148     0.74300
O861        O  0.58493562  0.80754480  0.43687671    -0.39100
O862        O  0.61069281  0.86595787  0.42838501    -0.39100
O863        O  0.60274406  0.75713493  0.24900565    -0.39800
O864        O  0.61107897  0.81888038  0.23144510    -0.39900
C865        C  0.83544017  0.89716603  0.36745656    -0.12100
C866        C  0.84054028  0.92828426  0.34117053     0.04900
C867        C  0.82390406  0.92429988  0.30436361    -0.07400
C868        C  0.80243625  0.89044002  0.29516917    -0.08200
C869        C  0.79664964  0.85962902  0.32165369    -0.02700
C870        C  0.81370845  0.86337532  0.35831316     0.04100
N871        N  0.80894476  0.83353515  0.38707304     0.66600
H872        H  0.84734168  0.89956926  0.39593284     0.15500
H873        H  0.79016600  0.88843188  0.26683280     0.15200
N874        N  0.82866282  0.95409441  0.27550985     0.74300
O875        O  0.83397745  0.80794211  0.39210384    -0.39100
O876        O  0.78356418  0.83730880  0.41176253    -0.39100
O877        O  0.85885663  0.95590916  0.25714546    -0.39800
O878        O  0.80050483  0.97187772  0.26265456    -0.39900
C879        C  0.89833576  0.66937399  0.20848084    -0.12100
C880        C  0.87822262  0.69409480  0.18346352     0.04900
C881        C  0.89452307  0.70400470  0.14755846    -0.07400
C882        C  0.92923533  0.68868138  0.13741746    -0.08200
C883        C  0.94898577  0.66429656  0.16246611    -0.02700
C884        C  0.93345771  0.65467251  0.19832385     0.04100
N885        N  0.95234250  0.62870744  0.22405234     0.66600
H886        H  0.88673302  0.66108137  0.23601335     0.15500
H887        H  0.94119785  0.69650679  0.10988833     0.15200
N888        N  0.87689551  0.73041797  0.12124499     0.74300
O889        O  0.97075298  0.64325420  0.25163502    -0.39100
O890        O  0.94494794  0.59185377  0.22349502    -0.39100
O891        O  0.88431395  0.76724836  0.12267912    -0.39800
O892        O  0.85997644  0.71632878  0.09245439    -0.39900
C893        C  0.31139172  0.38724673  0.80990734    -0.12100
C894        C  0.32897320  0.35072522  0.81583660     0.04900
C895        C  0.36327813  0.35078360  0.83567481    -0.07400
C896        C  0.37873070  0.38701307  0.84967714    -0.08200
C897        C  0.36079091  0.42381890  0.84408554    -0.02700
C898        C  0.32663211  0.42326789  0.82342376     0.04100
N899        N  0.30549384  0.45862882  0.81767037     0.66600
H900        H  0.28446901  0.38767869  0.79585771     0.15500
H901        H  0.40488052  0.38621812  0.86509533     0.15200
N902        N  0.38208997  0.31425470  0.84307317     0.74300
O903        O  0.30738429  0.47643390  0.78590567    -0.39100
O904        O  0.27942821  0.46673738  0.84053823    -0.39100
O905        O  0.40108259  0.29840097  0.81682045    -0.39800
O906        O  0.38602185  0.30254026  0.87715429    -0.39900
C907        C  0.40540252  0.19277945  0.71130691    -0.12100
C908        C  0.37080210  0.18467034  0.69413453     0.04900
C909        C  0.36961088  0.15795372  0.66253068    -0.07400
C910        C  0.40249409  0.14184757  0.64794169    -0.08200
C911        C  0.43730479  0.15095002  0.66421683    -0.02700
C912        C  0.43833601  0.17619672  0.69695951     0.04100
N913        N  0.47241478  0.18534067  0.71632572     0.66600
H914        H  0.40714843  0.21269647  0.73578248     0.15500
H915        H  0.40050817  0.12214955  0.62333071     0.15200
N916        N  0.33526271  0.14645243  0.64478507     0.74300
O917        O  0.48933290  0.21758912  0.70912973    -0.39100
O918        O  0.48155049  0.16535590  0.74538140    -0.39100
O919        O  0.32731300  0.15957820  0.61194678    -0.39800
O920        O  0.31649275  0.11794653  0.65858444    -0.39900
C921        C  0.15189005  0.12733657  0.63168582    -0.12100
C922        C  0.14462060  0.09704700  0.65849228     0.04900
C923        C  0.15631115  0.10359359  0.69694012    -0.07400
C924        C  0.17535833  0.13902368  0.70735132    -0.08200
C925        C  0.18402973  0.16841067  0.68014506    -0.02700
C926        C  0.17168200  0.16229421  0.64194334     0.04100
N927        N  0.17914727  0.19133032  0.61299667     0.66600
H928        H  0.14347350  0.12324046  0.60208650     0.15500
H929        H  0.18454416  0.14292426  0.73673528     0.15200
N930        N  0.14911347  0.07456474  0.72596947     0.74300
O931        O  0.20610815  0.18634781  0.59038687    -0.39100
O932        O  0.15488423  0.21703438  0.60522632    -0.39100
O933        O  0.17595127  0.05709946  0.74186231    -0.39800
O934        O  0.11701849  0.07181066  0.74039724    -0.39900
C935        C  0.10919197  0.32491624  0.78408333    -0.12100
C936        C  0.13981484  0.32291502  0.80892250     0.04900
C937        C  0.13703438  0.34086905  0.84566724    -0.07400
C938        C  0.10471739  0.36084949  0.85625644    -0.08200
C939        C  0.07402994  0.36290346  0.83156651    -0.02700
C940        C  0.07653233  0.34461705  0.79494726     0.04100
N941        N  0.04664339  0.34638375  0.76798817     0.66600
H942        H  0.11074309  0.31171701  0.75573509     0.15500
H943        H  0.10335056  0.37367230  0.88477455     0.15200
N944        N  0.16608845  0.33770096  0.87349024     0.74300
O945        O  0.04233090  0.37751161  0.74831299    -0.39100
O946        O  0.02996286  0.31466093  0.75823674    -0.39100
O947        O  0.18575076  0.36793120  0.88162789    -0.39800
O948        O  0.16724523  0.30744877  0.89486382    -0.39900
C949        C  0.16182017  0.33003453  0.63259277    -0.12100
C950        C  0.20049640  0.33355421  0.63715997     0.04900
C951        C  0.22101144  0.35793180  0.61178978    -0.07400
C952        C  0.20346428  0.37448015  0.57994108    -0.08200
C953        C  0.16529981  0.36868787  0.57395072    -0.02700
C954        C  0.14403350  0.34774742  0.60133728     0.04100
N955        N  0.10505680  0.34114322  0.59589947     0.66600
H956        H  0.14570723  0.31144421  0.65191133     0.15500
H957        H  0.21974394  0.39168989  0.55961263     0.15200
N958        N  0.25950169  0.36659402  0.61843692     0.74300
O959        O  0.09364782  0.30871147  0.58147383    -0.39100
O960        O  0.08207329  0.36470206  0.61094241    -0.39100
O961        O  0.28371693  0.35386218  0.59538867    -0.39800
O962        O  0.26845039  0.39281200  0.64288153    -0.39900
C963        C  0.33607558  0.18703619  0.94195519    -0.12100
C964        C  0.35007808  0.14869753  0.93586580     0.04900
C965        C  0.35143661  0.13347687  0.89807672    -0.07400
C966        C  0.33610769  0.15563147  0.86780950    -0.08200
C967        C  0.31959601  0.19281088  0.87481869    -0.02700
C968        C  0.32087686  0.20896143  0.91231997     0.04100
N969        N  0.30637134  0.24751715  0.92127786     0.66600
H970        H  0.33609713  0.20020726  0.97036593     0.15500
H971        H  0.33587790  0.14309646  0.83913726     0.15200
N972        N  0.36676001  0.09516843  0.89018840     0.74300
O973        O  0.27313434  0.25028585  0.93255635    -0.39100
O974        O  0.32869735  0.27593404  0.92798059    -0.39100
O975        O  0.34534449  0.06564581  0.88486928    -0.39800
O976        O  0.40078179  0.09236299  0.88180796    -0.39900
C977        C  0.77865838  0.34445411  0.59880434    -0.12100
C978        C  0.79890698  0.34681013  0.63318851     0.04900
C979        C  0.83470514  0.36380976  0.63285468    -0.07400
C980        C  0.85101577  0.37418587  0.59785197    -0.08200
C981        C  0.83242149  0.36760489  0.56271411    -0.02700
C982        C  0.79493739  0.35465866  0.56371961     0.04100
N983        N  0.77343857  0.34976324  0.52955930     0.66600
H984        H  0.75096882  0.33133325  0.59879759     0.15500
H985        H  0.87943691  0.38517515  0.59836584     0.15200
N986        N  0.85667468  0.36590389  0.66695450     0.74300
O987        O  0.77076084  0.31572063  0.51421466    -0.39100
O988        O  0.75068759  0.37649890  0.52032466    -0.39100
O989        O  0.88683507  0.34705046  0.66854310    -0.39800
O990        O  0.85019993  0.39263626  0.69153017    -0.39900
C991        C  0.70087401  0.39204908  0.78534816    -0.12100
C992        C  0.71570055  0.36678330  0.81341217     0.04900
C993        C  0.70621703  0.37410916  0.85238956    -0.07400
C994        C  0.68287669  0.40588865  0.86206582    -0.08200
C995        C  0.66879215  0.43146479  0.83400190    -0.02700
C996        C  0.67760610  0.42393165  0.79514358     0.04100
N997        N  0.66216888  0.44749387  0.76505172     0.66600
H998        H  0.70697144  0.38683851  0.75534347     0.15500
H999        H  0.67704481  0.41157361  0.89206828     0.15200
N1000       N  0.72088286  0.35058181  0.88289259     0.74300
O1001       O  0.68312907  0.46110369  0.73910185    -0.39100
O1002       O  0.62738978  0.44763151  0.76009866    -0.39100
O1003       O  0.74989112  0.36221712  0.90016432    -0.39800
O1004       O  0.70111375  0.32327599  0.89740978    -0.39900
C1005       C  0.79641852  0.11317306  0.70299892    -0.12100
C1006       C  0.80059302  0.14878223  0.68276781     0.04900
C1007       C  0.82606586  0.14987348  0.65170469    -0.07400
C1008       C  0.84499612  0.11522802  0.64049629    -0.08200
C1009       C  0.83942779  0.07884892  0.65960112    -0.02700
C1010       C  0.81529109  0.07861712  0.69203467     0.04100
N1011       N  0.80878834  0.04355042  0.71424111     0.66600
H1012       H  0.77737782  0.11163628  0.72704563     0.15500
H1013       H  0.86354597  0.11679015  0.61607382     0.15200
N1014       N  0.83329467  0.18597886  0.63124102     0.74300
O1015       O  0.83209961  0.03395813  0.73958017    -0.39100
O1016       O  0.77653154  0.02836009  0.71504946    -0.39100
O1017       O  0.85983538  0.20841713  0.64162819    -0.39800
O1018       O  0.81799103  0.19155503  0.59915568    -0.39900
C1019       C  0.57970703  0.15430109  0.69199186    -0.12100
C1020       C  0.57389985  0.14821847  0.65257899     0.04900
C1021       C  0.60278445  0.15774094  0.62684576    -0.07400
C1022       C  0.63611268  0.17421158  0.64070560    -0.08200
C1023       C  0.64166824  0.18171855  0.68013142    -0.02700
C1024       C  0.61317625  0.17056570  0.70593065     0.04100
N1025       N  0.61654963  0.17795416  0.74607264     0.66600
H1026       H  0.55780872  0.14698261  0.71219353     0.15500
H1027       H  0.65747414  0.18204053  0.62008985     0.15200
N1028       N  0.59781345  0.15368334  0.58634888     0.74300
O1029       O  0.60339544  0.20965975  0.75981259    -0.39100
O1030       O  0.62469593  0.14968070  0.76824658    -0.39100
O1031       O  0.58858656  0.18364975  0.56685544    -0.39800
O1032       O  0.60956800  0.12294923  0.56946331    -0.39900
C1033       C  0.71164661  0.14863182  0.87490592    -0.12100
C1034       C  0.69516499  0.17994379  0.85472511     0.04900
C1035       C  0.66126341  0.19594505  0.86799097    -0.07400
C1036       C  0.64482027  0.18079745  0.90121831    -0.08200
C1037       C  0.66256089  0.15150166  0.92275201    -0.02700
C1038       C  0.69577806  0.13459135  0.90906188     0.04100
N1039       N  0.71377316  0.10348094  0.92969963     0.66600
H1040       H  0.73805140  0.13676668  0.86543256     0.15500
H1041       H  0.61924937  0.19387021  0.91163152     0.15200
N1042       N  0.64422294  0.22912841  0.84944167     0.74300
O1043       O  0.70491063  0.06760313  0.92318055    -0.39100
O1044       O  0.74228255  0.11134498  0.94955040    -0.39100
O1045       O  0.61113306  0.22570022  0.83775022    -0.39800
O1046       O  0.65781249  0.26360941  0.85422113    -0.39900
C1047       C  0.93816233  0.34230771  0.80014324    -0.12100
C1048       C  0.93759950  0.36836280  0.83197702     0.04900
C1049       C  0.90295278  0.37625525  0.84963397    -0.07400
C1050       C  0.87068367  0.35701062  0.83636577    -0.08200
C1051       C  0.87196022  0.32990226  0.80576619    -0.02700
C1052       C  0.90596850  0.32262829  0.78741181     0.04100
N1053       N  0.90901773  0.29266553  0.75835233     0.66600
H1054       H  0.96405787  0.33547879  0.78592178     0.15500
H1055       H  0.84444303  0.36269001  0.85060894     0.15200
N1056       N  0.89987581  0.40277960  0.88158984     0.74300
O1057       O  0.92052679  0.30224623  0.72547693    -0.39100
O1058       O  0.90939731  0.25645279  0.76805363    -0.39100
O1059       O  0.88776274  0.43755304  0.87644408    -0.39800
O1060       O  0.90184137  0.38911480  0.91518998    -0.39900
C1061       C  0.14307808  0.68030695  0.63954525    -0.12100
C1062       C  0.17177315  0.70852080  0.63562258     0.04900
C1063       C  0.17666907  0.72813484  0.60037084    -0.07400
C1064       C  0.15479472  0.71690763  0.56895674    -0.08200
C1065       C  0.12765075  0.68649616  0.57201689    -0.02700
C1066       C  0.12076946  0.66946758  0.60845031     0.04100
N1067       N  0.09191498  0.64057277  0.61453968     0.66600
H1068       H  0.13817547  0.66609586  0.66698646     0.15500
H1069       H  0.16021808  0.73121516  0.54170133     0.15200
N1070       N  0.20530824  0.75747900  0.59524189     0.74300
O1071       O  0.09965284  0.60394355  0.61390363    -0.39100
O1072       O  0.06128868  0.65156249  0.62851179    -0.39100
O1073       O  0.23532161  0.74785914  0.57907058    -0.39800
O1074       O  0.19786824  0.79388581  0.59981185    -0.39900
C1075       C  0.39007989  0.79952424  0.72481088    -0.12100
C1076       C  0.35610413  0.80781023  0.70735336     0.04900
C1077       C  0.35634699  0.82776006  0.67182250    -0.07400
C1078       C  0.39024907  0.84033755  0.65544865    -0.08200
C1079       C  0.42467916  0.83398490  0.67393360    -0.02700
C1080       C  0.42389241  0.81288840  0.70921797     0.04100
N1081       N  0.45620008  0.80817453  0.73226760     0.66600
H1082       H  0.39032203  0.78528432  0.75268077     0.15500
H1083       H  0.38934852  0.85551062  0.62810940     0.15200
N1084       N  0.32242332  0.83479660  0.65164543     0.74300
O1085       O  0.46778865  0.83810338  0.75090897    -0.39100
O1086       O  0.46366547  0.77375461  0.74447962    -0.39100
O1087       O  0.31102604  0.86997643  0.64734496    -0.39800
O1088       O  0.30690873  0.80662148  0.63344584    -0.39900
C1089       C  0.14865303  0.67791058  0.82439636    -0.12100
C1090       C  0.14563859  0.70460710  0.79355902     0.04900
C1091       C  0.11021377  0.71956168  0.78436299    -0.07400
C1092       C  0.07880181  0.70673830  0.80506515    -0.08200
C1093       C  0.08156449  0.67883201  0.83510663    -0.02700
C1094       C  0.11738871  0.66491126  0.84496505     0.04100
N1095       N  0.12266309  0.63605052  0.87447842     0.66600
H1096       H  0.17556640  0.66595022  0.83204046     0.15500
H1097       H  0.05192780  0.71819990  0.79683760     0.15200
N1098       N  0.10518119  0.74559941  0.75247474     0.74300
O1099       O  0.12413275  0.59953396  0.86580077    -0.39100
O1100       O  0.13292119  0.64736391  0.90739525    -0.39100
O1101       O  0.09466546  0.73147415  0.72064427    -0.39800
O1102       O  0.10522477  0.78284280  0.75772592    -0.39900
C1103       C  0.35805705  0.63729587  0.81876882    -0.12100
C1104       C  0.31957153  0.63402354  0.81127151     0.04900
C1105       C  0.30053418  0.59966669  0.82475371    -0.07400
C1106       C  0.32014495  0.56842283  0.84157570    -0.08200
C1107       C  0.35882188  0.57023283  0.84670603    -0.02700
C1108       C  0.37767026  0.60587209  0.83654447     0.04100
N1109       N  0.41685942  0.60987909  0.84227134     0.66600
H1110       H  0.37323611  0.66361689  0.80955222     0.15500
H1111       H  0.30474799  0.54223547  0.85072467     0.15200
N1112       N  0.26090353  0.59628011  0.82250961     0.74300
O1113       O  0.43899464  0.59810094  0.81665893    -0.39100
O1114       O  0.42904235  0.63062009  0.86987664    -0.39100
O1115       O  0.24623879  0.57303154  0.79819578    -0.39800
O1116       O  0.24126864  0.61018518  0.84929414    -0.39900
C1117       C  0.35193518  0.84369632  0.86856151    -0.12100
C1118       C  0.33188470  0.80760233  0.86662555     0.04900
C1119       C  0.33376357  0.78103487  0.89795663    -0.07400
C1120       C  0.35436177  0.79158862  0.93051849    -0.08200
C1121       C  0.37356209  0.82819703  0.93280200    -0.02700
C1122       C  0.37253202  0.85422535  0.90099916     0.04100
N1123       N  0.39052236  0.89241354  0.90157486     0.66600
H1124       H  0.35122522  0.86457476  0.84493171     0.15500
H1125       H  0.35497284  0.77095998  0.95435656     0.15200
N1126       N  0.31423603  0.74371462  0.89784098     0.74300
O1127       O  0.42221145  0.89636891  0.88644439    -0.39100
O1128       O  0.37162093  0.92305727  0.90878014    -0.39100
O1129       O  0.33011665  0.71297233  0.88515831    -0.39800
O1130       O  0.28456983  0.74004355  0.91687555    -0.39900
C1131       C  0.15912638  0.87927231  0.66786432    -0.12100
C1132       C  0.17622276  0.88379194  0.70396954     0.04900
C1133       C  0.17383877  0.92128793  0.72244315    -0.07400
C1134       C  0.15676777  0.95343033  0.70422653    -0.08200
C1135       C  0.14145263  0.94995019  0.66728734    -0.02700
C1136       C  0.14195734  0.91184982  0.64941704     0.04100
N1137       N  0.12728769  0.90613525  0.61171026     0.66600
H1138       H  0.16076236  0.85092928  0.65298532     0.15500
H1139       H  0.15588286  0.98165816  0.71932687     0.15200
N1140       N  0.18886052  0.92744607  0.75998299     0.74300
O1141       O  0.14846279  0.90985456  0.58308257    -0.39100
O1142       O  0.09551569  0.89043025  0.60745494    -0.39100
O1143       O  0.21779905  0.94858957  0.76426876    -0.39800
O1144       O  0.16982253  0.91782220  0.78893922    -0.39900
C1145       C  0.81113286  0.63469296  0.63909705    -0.12100
C1146       C  0.78812706  0.66775942  0.63456169     0.04900
C1147       C  0.77427823  0.67683513  0.59770020    -0.07400
C1148       C  0.78649308  0.65548651  0.56582431    -0.08200
C1149       C  0.81264647  0.62499802  0.56963698    -0.02700
C1150       C  0.82339953  0.61315419  0.60706563     0.04100
N1151       N  0.84746358  0.58007346  0.61314049     0.66600
H1152       H  0.82123493  0.62679530  0.66732934     0.15500
H1153       H  0.77687664  0.66454854  0.53775586     0.15200
N1154       N  0.74852731  0.70852792  0.59194488     0.74300
O1155       O  0.88106208  0.58627764  0.62204716    -0.39100
O1156       O  0.83357651  0.54568182  0.61738796    -0.39100
O1157       O  0.75992141  0.74134240  0.57853726    -0.39800
O1158       O  0.71406124  0.70113122  0.59281332    -0.39900
C1159       C  0.69897773  0.61789787  0.78606310    -0.12100
C1160       C  0.71389021  0.64299299  0.81466978     0.04900
C1161       C  0.70551119  0.63391138  0.85353934    -0.07400
C1162       C  0.68223734  0.60151400  0.86258419    -0.08200
C1163       C  0.66780796  0.57629553  0.83405050    -0.02700
C1164       C  0.67643037  0.58474326  0.79529062     0.04100
N1165       N  0.66198120  0.56050804  0.76479703     0.66600
H1166       H  0.70468210  0.62405329  0.75615710     0.15500
H1167       H  0.67711175  0.59477733  0.89250458     0.15200
N1168       N  0.72201914  0.65568349  0.88457471     0.74300
O1169       O  0.62729728  0.55850038  0.75939810    -0.39100
O1170       O  0.68364924  0.54781933  0.73914148    -0.39100
O1171       O  0.70256543  0.67968274  0.90375692    -0.39800
O1172       O  0.75322644  0.64508774  0.89740045    -0.39900
C1173       C  0.60834891  0.81817497  0.71368852    -0.12100
C1174       C  0.63864918  0.82878781  0.69086348     0.04900
C1175       C  0.63211907  0.84956168  0.65649244    -0.07400
C1176       C  0.59556770  0.85826832  0.64524697    -0.08200
C1177       C  0.56451467  0.84578895  0.66709343    -0.02700
C1178       C  0.57173484  0.82538454  0.70188926     0.04100
N1179       N  0.54286717  0.80787435  0.72413239     0.66600
H1180       H  0.61291420  0.80098529  0.73952464     0.15500
H1181       H  0.59171047  0.87424289  0.61862638     0.15200
N1182       N  0.66237064  0.86203508  0.63266180     0.74300
O1183       O  0.53194212  0.77333832  0.71475704    -0.39100
O1184       O  0.53963631  0.81877246  0.75863377    -0.39100
O1185       O  0.66679726  0.84612193  0.60016915    -0.39800
O1186       O  0.68087373  0.89290464  0.64141667    -0.39900
C1187       C  0.72955684  0.82430765  0.90265898    -0.12100
C1188       C  0.71628984  0.83791503  0.86715931     0.04900
C1189       C  0.69277703  0.87118489  0.86635624    -0.07400
C1190       C  0.68059402  0.88797573  0.90099196    -0.08200
C1191       C  0.69147767  0.87210760  0.93668714    -0.02700
C1192       C  0.71736975  0.84072826  0.93715236     0.04100
N1193       N  0.72933631  0.82280255  0.97213558     0.66600
H1194       H  0.74821183  0.79910815  0.90380994     0.15500
H1195       H  0.66135618  0.91263314  0.89982757     0.15200
N1196       N  0.67880507  0.88632010  0.83097867     0.74300
O1197       O  0.70990406  0.79544456  0.98706793    -0.39100
O1198       O  0.76197798  0.82914768  0.98416279    -0.39100
O1199       O  0.64689764  0.87574285  0.81950969    -0.39800
O1200       O  0.69511764  0.91536891  0.81513435    -0.39900
C1201       C  0.82490496  0.86247802  0.65686811    -0.12100
C1202       C  0.79980134  0.86636419  0.68770429     0.04900
C1203       C  0.79729230  0.90353935  0.70623051    -0.07400
C1204       C  0.81828484  0.93594930  0.69281967    -0.08200
C1205       C  0.84158804  0.93307328  0.66033345    -0.02700
C1206       C  0.84585393  0.89513250  0.64332492     0.04100
N1207       N  0.87096390  0.88906916  0.61219209     0.66600
H1208       H  0.82798291  0.83387998  0.64271486     0.15500
H1209       H  0.81504157  0.96402073  0.70747932     0.15200
N1210       N  0.77135371  0.90992235  0.73665547     0.74300
O1211       O  0.90451528  0.88100177  0.61913996    -0.39100
O1212       O  0.85839659  0.88436769  0.57868205    -0.39100
O1213       O  0.78293372  0.91317228  0.77068862    -0.39800
O1214       O  0.73829769  0.91933235  0.72883022    -0.39900
C1215       C  0.90388473  0.69512102  0.78739419    -0.12100
C1216       C  0.87208531  0.68507039  0.80855053     0.04900
C1217       C  0.87615951  0.66253660  0.84229229    -0.07400
C1218       C  0.91162963  0.65225992  0.85538539    -0.08200
C1219       C  0.94398158  0.66409582  0.83558201    -0.02700
C1220       C  0.93959973  0.68486605  0.80041091     0.04100
N1221       N  0.97091875  0.69665593  0.77781162     0.66600
H1222       H  0.90115228  0.71261973  0.76149046     0.15500
H1223       H  0.91364946  0.63569868  0.88190127     0.15200
N1224       N  0.84433532  0.65009378  0.86383538     0.74300
O1225       O  0.98410639  0.67259011  0.75360042    -0.39100
O1226       O  0.98036260  0.73296197  0.77652761    -0.39100
O1227       O  0.82840710  0.61746365  0.85568536    -0.39800
O1228       O  0.83662618  0.66755448  0.89488702    -0.39900
loop_ 
_geom_bond_atom_site_label_1 
_geom_bond_atom_site_label_2 
_geom_bond_distance 
_geom_bond_site_symmetry_2 
_ccdc_geom_bond_type 
N1            C6   1.356       .  A
N1            C5   1.357       .  A
N1           H33   1.036       .  S
N2            C9   1.357   1_565  A
N2           C10   1.355       .  A
N3            C8   1.359       .  A
N3            C7   1.357       .  A
N3           H34   1.037       .  S
N4           C11   1.354   1_565  A
N4           C12   1.355       .  A
C5           C13   1.387       .  A
C5           C21   1.421       .  A
C6           C22   1.422       .  A
C6           C14   1.389       .  A
C7           C15   1.388       .  A
C7           C24   1.423       .  A
C8           C23   1.423       .  A
C8           C16   1.387       .  A
C9           C21   1.421       .  A
C9           C17   1.386       .  A
C10          C24   1.421       .  A
C10          C18   1.387       .  A
C11          C19   1.388       .  A
C11          C22   1.421       .  A
C12          C20   1.386       .  A
C12          C23   1.418       .  A
C13          C14   1.377       .  A
C13          H25   1.082       .  S
C14          H26   1.082       .  S
C15          C16   1.379       .  A
C15          H27   1.082       .  S
C16          H28   1.082       .  S
C17          C18   1.375   1_545  A
C17          H29   1.082       .  S
C18          H30   1.082       .  S
C19          C20   1.373   1_545  A
C19          H31   1.082       .  S
C20          H32   1.082       .  S
C21         C435   1.493       .  S
C22         C517   1.486       .  S
C23         C541   1.494       .  S
C24         C481   1.489       .  S
N35          C40   1.348       .  A
N35          C39   1.349       .  A
N35          H67   1.038       .  S
N36          C43   1.347       .  A
N36          C44   1.346   1_655  A
N37          C42   1.351       .  A
N37          C41   1.354       .  A
N37          H68   1.036       .  S
N38          C45   1.347   1_455  A
N38          C46   1.345       .  A
C39          C47   1.387       .  A
C39          C55   1.405       .  A
C40          C56   1.406       .  A
C40          C48   1.388       .  A
C41          C49   1.388       .  A
C41          C58   1.417       .  A
C42          C57   1.413       .  A
C42          C50   1.387       .  A
C43          C55   1.403       .  A
C43          C51   1.385       .  A
C44          C58   1.408       .  A
C44          C52   1.388   1_455  A
C45          C53   1.384       .  A
C45          C56   1.400       .  A
C46          C54   1.389       .  A
C46          C57   1.406       .  A
C47          C48   1.364       .  A
C47          H59   1.082       .  S
C48          H60   1.080       .  S
C49          C50   1.375       .  A
C49          H61   1.081       .  S
C50          H62   1.082       .  S
C51          C52   1.373       .  A
C51          H63   1.083       .  S
C52          H64   1.082   1_655  S
C53          C54   1.373   1_655  A
C53          H65   1.082       .  S
C54          H66   1.083       .  S
C55         C553   1.459       .  S
C56         C457   1.459       .  S
C57         C501   1.462       .  S
C58         C487   1.471       .  S
N69          C74   1.360   1_556  A
N69          C73   1.360       .  A
N69         H101   1.033       .  S
N70          C77   1.358       .  A
N70          C78   1.358       .  A
N71          C76   1.361   1_556  A
N71          C75   1.361       .  A
N71         H102   1.035       .  S
N72          C79   1.359       .  A
N72          C80   1.359       .  A
C73          C81   1.388       .  A
C73          C89   1.431       .  A
C74          C90   1.431       .  A
C74          C82   1.388       .  A
C75          C83   1.387       .  A
C75          C92   1.430       .  A
C76          C91   1.430       .  A
C76          C84   1.388       .  A
C77          C89   1.426       .  A
C77          C85   1.387       .  A
C78          C92   1.425       .  A
C78          C86   1.387       .  A
C79          C87   1.387       .  A
C79          C90   1.428       .  A
C80          C88   1.387       .  A
C80          C91   1.428       .  A
C81          C82   1.381   1_556  A
C81          H93   1.082       .  S
C82          H94   1.082       .  S
C83          C84   1.381   1_556  A
C83          H95   1.082       .  S
C84          H96   1.082       .  S
C85          C86   1.375       .  A
C85          H97   1.082       .  S
C86          H98   1.082       .  S
C87          C88   1.376       .  A
C87          H99   1.082       .  S
C88         H100   1.082       .  S
C89         C547   1.502       .  S
C90         C453   1.505       .  S
C91         C463   1.505       .  S
C92         C523   1.503       .  S
N103        C108   1.355       .  A
N103        C107   1.356   1_556  A
N103        H135   1.036       .  S
N104        C111   1.356       .  A
N104        C112   1.355       .  A
N105        C110   1.358   1_554  A
N105        C109   1.356       .  A
N105        H136   1.036   1_554  S
N106        C113   1.353       .  A
N106        C114   1.353       .  A
C107        C115   1.388   1_455  A
C107        C123   1.423       .  A
C108        C124   1.420       .  A
C108        C116   1.387   1_455  A
C109        C117   1.389       .  A
C109        C126   1.424       .  A
C110        C125   1.422       .  A
C110        C118   1.386       .  A
C111        C123   1.422       .  A
C111        C119   1.387       .  A
C112        C126   1.421       .  A
C112        C120   1.387       .  A
C113        C121   1.387       .  A
C113        C124   1.415       .  A
C114        C122   1.387       .  A
C114        C125   1.415       .  A
C115        C116   1.378   1_554  A
C115        H127   1.081       .  S
C116        H128   1.082       .  S
C117        C118   1.380   1_554  A
C117        H129   1.082       .  S
C118        H130   1.082       .  S
C119        C120   1.374       .  A
C119        H131   1.082       .  S
C120        H132   1.082       .  S
C121        C122   1.370       .  A
C121        H133   1.082       .  S
C122        H134   1.082       .  S
C123        C423   1.493       .  S
C124        C505   1.482       .  S
C125        C537   1.489       .  S
C126        C469   1.488       .  S
N137        C142   1.349   1_545  A
N137        C141   1.347       .  A
N137        H169   1.039   1_556  S
N138        C145   1.347   1_556  A
N138        C146   1.345   1_556  A
N139        C144   1.352   1_554  A
N139        C143   1.350   1_564  A
N139        H170   1.037       .  S
N140        C147   1.346       .  A
N140        C148   1.345       .  A
C141        C149   1.388       .  A
C141        C157   1.408       .  A
C142        C158   1.404       .  A
C142        C150   1.386       .  A
C143        C151   1.386       .  A
C143        C160   1.409   1_556  A
C144        C159   1.413   1_556  A
C144        C152   1.388       .  A
C145        C157   1.402   1_554  A
C145        C153   1.384       .  A
C146        C160   1.407       .  A
C146        C154   1.389       .  A
C147        C155   1.385       .  A
C147        C158   1.403   1_554  A
C148        C156   1.387       .  A
C148        C159   1.404       .  A
C149        C150   1.367   1_545  A
C149        H161   1.079       .  S
C150        H162   1.081       .  S
C151        C152   1.373   1_545  A
C151        H163   1.082       .  S
C152        H164   1.081       .  S
C153        C154   1.375       .  A
C153        H165   1.082       .  S
C154        H166   1.082       .  S
C155        C156   1.372       .  A
C155        H167   1.082       .  S
C156        H168   1.082       .  S
C157        C445   1.462       .  S
C158        C495   1.460   1_556  S
C159        C477   1.464       .  S
C160        C429   1.460       .  S
O171       Ni177   1.902       .  S
O171        C192   1.265       .  A
O172       Ni195   1.923       .  S
O172        C181   1.271       .  A
O173       Ni177   1.894       .  S
O173       Ni195   1.898       .  S
O173       Ni189   1.929       .  S
O173        H196   0.966       .  S
C174       C1174   1.480       .  S
C174        O191   1.282       .  A
C174        O183   1.276       .  A
O175       Ni194   1.903       .  S
O175        C181   1.264       .  A
O176       Ni194   1.893       .  S
O176        C178   1.264       .  A
Ni177       O180   1.912       .  S
Ni177       O182   1.898       .  S
C178       C1202   1.489       .  S
C178        O188   1.277       .  A
O179       Ni195   1.948       .  S
O179        C185   1.286       .  A
O180        C185   1.277       .  A
C181       C1146   1.474       .  S
O182        C184   1.264       .  A
O183       Ni194   1.920       .  S
C184       C1160   1.502       .  S
C184        O190   1.277       .  A
C185       C1216   1.481       .  S
H186        O187   0.965       .  S
O187       Ni195   1.932       .  S
O187       Ni189   1.903       .  S
O187       Ni194   1.902       .  S
O188       Ni189   1.946       .  S
Ni189       O193   1.931       .  S
Ni189       O191   1.933       .  S
O190       Ni195   1.948       .  S
C192       C1188   1.478       .  S
C192        O193   1.272       .  A
O197       Ni203   1.928       .  S
O197        C218   1.270       .  A
O198       Ni221   1.934       .  S
O198        C207   1.273       .  A
O199       Ni203   1.917       .  S
O199       Ni221   1.929       .  S
O199       Ni215   1.911       .  S
O199        H222   0.963       .  S
C200       C1118   1.483       .  S
C200        O217   1.263       .  A
C200        O209   1.273       .  A
O201       Ni220   1.921       .  S
O201        C207   1.270       .  A
O202       Ni220   1.906       .  S
O202        C204   1.269       .  A
Ni203       O206   1.924       .  S
Ni203       O208   1.891       .  S
C204       C1076   1.486       .  S
C204        O214   1.283       .  A
O205       Ni221   1.894       .  S
O205        C211   1.264       .  A
O206        C211   1.272       .  A
C207       C1132   1.499       .  S
O208        C210   1.268       .  A
O209       Ni220   1.933       .  S
C210       C1090   1.490       .  S
C210        O216   1.282       .  A
C211       C1062   1.468       .  S
H212        O213   0.965       .  S
O213       Ni221   1.913       .  S
O213       Ni215   1.920       .  S
O213       Ni220   1.917       .  S
O214       Ni215   1.961       .  S
Ni215       O219   1.930       .  S
Ni215       O217   1.894       .  S
O216       Ni221   1.962       .  S
C218       C1104   1.503       .  S
C218        O219   1.271       .  A
O223       Ni229   1.903       .  S
O223        C244   1.265       .  A
O224       Ni247   1.923       .  S
O224        C233   1.274       .  A
O225       Ni229   1.895       .  S
O225       Ni247   1.902       .  S
O225       Ni241   1.920       .  S
O225        H248   0.966       .  S
C226       C1051   1.467       .  S
C226        O243   1.279       .  A
C226        O235   1.274       .  A
O227       Ni246   1.911       .  S
O227        C233   1.266       .  A
O228       Ni246   1.900       .  S
O228        C230   1.265       .  A
Ni229       O232   1.914       .  S
Ni229       O234   1.893       .  S
C230        C992   1.498       .  S
C230        O240   1.278       .  A
O231       Ni247   1.935       .  S
O231        C237   1.281       .  A
O232        C237   1.276       .  A
C233       C1034   1.466       .  S
O234        C236   1.264       .  A
O235       Ni246   1.910       .  S
C236       C1006   1.492       .  S
C236        O242   1.280       .  A
C237       C1023   1.493       .  S
H238        O239   0.965       .  S
O239       Ni247   1.920       .  S
O239       Ni241   1.901       .  S
O239       Ni246   1.896       .  S
O240       Ni241   1.943       .  S
Ni241       O245   1.926       .  S
Ni241       O243   1.931       .  S
O242       Ni247   1.950       .  S
C244        C978   1.468       .  S
C244        O245   1.271       .  A
O249       Ni255   1.924       .  S
O249        C270   1.272       .  A
O250       Ni273   1.923       .  S
O250        C259   1.274       .  A
O251       Ni255   1.886       .  S
O251       Ni273   1.897       .  S
O251       Ni267   1.914       .  S
O251        H274   0.970       .  S
C252        C967   1.477       .  S
C252        O269   1.281       .  A
C252        O261   1.274       .  A
O253       Ni272   1.915       .  S
O253        C259   1.267       .  A
O254       Ni272   1.900       .  S
O254        C256   1.267       .  A
Ni255       O258   1.916       .  S
Ni255       O260   1.920       .  S
C256        C894   1.492       .  S
C256        O266   1.281       .  A
O257       Ni273   1.927       .  S
O257        C263   1.279       .  A
O258        C263   1.278       .  A
C259        C936   1.488       .  S
O260        C262   1.270       .  A
O261       Ni272   1.902       .  S
C262        C925   1.503       .  S
C262        O268   1.281       .  A
C263        C950   1.473       .  S
H264        O265   0.970       .  S
O265       Ni273   1.909       .  S
O265       Ni267   1.907       .  S
O265       Ni272   1.887       .  S
O266       Ni267   1.966       .  S
Ni267       O271   1.923       .  S
Ni267       O269   1.929       .  S
O268       Ni273   1.959       .  S
C270        C908   1.494       .  S
C270        O271   1.277       .  A
O275       Ni281   1.910       .  S
O275        C296   1.264       .  A
O276       Ni299   1.920       .  S
O276        C285   1.270       .  A
O277       Ni281   1.898       .  S
O277       Ni299   1.898       .  S
O277       Ni293   1.921       .  S
O277        H300   0.968       .  S
C278        C880   1.496       .  S
C278        O295   1.282       .  A
C278        O287   1.276       .  A
O279       Ni298   1.908       .  S
O279        C285   1.267       .  A
O280       Ni298   1.906       .  S
O280        C282   1.268       .  A
Ni281       O284   1.915       .  S
Ni281       O286   1.902       .  S
C282        C827   1.503       .  S
C282        O292   1.277       .  A
O283       Ni299   1.941       .  S
O283        C289   1.284       .  A
O284        C289   1.278       .  A
C285        C838   1.465       .  S
O286        C288   1.264       .  A
O287       Ni298   1.918       .  S
C288        C869   1.501       .  S
C288        O294   1.277       .  A
C289        C852   1.487       .  S
H290        O291   0.965       .  S
O291       Ni299   1.926       .  S
O291       Ni293   1.902       .  S
O291       Ni298   1.898       .  S
O292       Ni293   1.948       .  S
Ni293       O297   1.920       .  S
Ni293       O295   1.932       .  S
O294       Ni299   1.944       .  S
C296        C810   1.461       .  S
C296        O297   1.270       .  A
O301       Ni307   1.919       .  S
O301        C322   1.269       .  A
O302       Ni325   1.926       .  S
O302        C311   1.269       .  A
O303       Ni307   1.916       .  S
O303       Ni325   1.918       .  S
O303       Ni319   1.913       .  S
O303        H326   0.965       .  S
C304        C726   1.487       .  S
C304        O321   1.269       .  A
C304        O313   1.270       .  A
O305       Ni324   1.925       .  S
O305        C311   1.269       .  A
O306       Ni324   1.897       .  S
O306        C308   1.270       .  A
Ni307       O310   1.932       .  S
Ni307       O312   1.900       .  S
C308        C768   1.498       .  S
C308        O318   1.286       .  A
O309       Ni325   1.897       .  S
O309        C315   1.265       .  A
O310        C315   1.273       .  A
C311        C785   1.501       .  S
O312        C314   1.267       .  A
O313       Ni324   1.915       .  S
C314        C740   1.490       .  S
C314        O320   1.279       .  A
C315        C757   1.472       .  S
H316        O317   0.970       .  S
O317       Ni325   1.922       .  S
O317       Ni319   1.938       .  S
O317       Ni324   1.918       .  S
O318       Ni319   1.968       .  S
Ni319       O323   1.950       .  S
Ni319       O321   1.913       .  S
O320       Ni325   1.960       .  S
C322        C799   1.513       .  S
C322        O323   1.279       .  A
O327       Ni333   1.901       .  S
O327        C348   1.265       .  A
O328       Ni351   1.919       .  S
O328        C337   1.272       .  A
O329       Ni333   1.886       .  S
O329       Ni351   1.895       .  S
O329       Ni345   1.929       .  S
O329        H352   0.962       .  S
C330        C698   1.498       .  S
C330        O347   1.286       .  A
C330        O339   1.278       .  A
O331       Ni350   1.911       .  S
O331        C337   1.265       .  A
O332       Ni350   1.894       .  S
O332        C334   1.264       .  A
Ni333       O336   1.916       .  S
Ni333       O338   1.897       .  S
C334        C684   1.488       .  S
C334        O344   1.276       .  A
O335       Ni351   1.941       .  S
O335        C341   1.284       .  A
O336        C341   1.277       .  A
C337        C645   1.462       .  S
O338        C340   1.267       .  A
O339       Ni350   1.914       .  S
C340        C656   1.503       .  S
C340        O346   1.279       .  A
C341        C712   1.491       .  S
H342        O343   0.969       .  S
O343       Ni351   1.925       .  S
O343       Ni345   1.900       .  S
O343       Ni350   1.889       .  S
O344       Ni345   1.943       .  S
Ni345       O349   1.925       .  S
Ni345       O347   1.951       .  S
O346       Ni351   1.956       .  S
C348        C673   1.468       .  S
C348        O349   1.272       .  A
N353        C358   1.360       .  A
N353        C357   1.361       .  A
N353        H385   1.032       .  S
N354        C361   1.359       .  A
N354        C362   1.359   1_655  A
N355        C360   1.360       .  A
N355        C359   1.360       .  A
N355        H386   1.033       .  S
N356        C363   1.359       .  A
N356        C364   1.359   1_655  A
C357        C365   1.388   1_545  A
C357        C373   1.432       .  A
C358        C374   1.431       .  A
C358        C366   1.388   1_545  A
C359        C367   1.388       .  A
C359        C376   1.430       .  A
C360        C375   1.430       .  A
C360        C368   1.387       .  A
C361        C373   1.428       .  A
C361        C369   1.387       .  A
C362        C376   1.428       .  A
C362        C370   1.387       .  A
C363        C371   1.388       .  A
C363        C374   1.429       .  A
C364        C372   1.386       .  A
C364        C375   1.427       .  A
C365        C366   1.382       .  A
C365        H377   1.082       .  S
C366        H378   1.082       .  S
C367        C368   1.380       .  A
C367        H379   1.082       .  S
C368        H380   1.082       .  S
C369        C370   1.375   1_655  A
C369        H381   1.082       .  S
C370        H382   1.082       .  S
C371        C372   1.375   1_655  A
C371        H383   1.082       .  S
C372        H384   1.082       .  S
C373        C529   1.505       .  S
C374        C441   1.503       .  S
C375        C389   1.504       .  S
C376        C511   1.502       .  S
C387        N388   1.367       .  A
C387        N392   1.363   1_565  A
C387        C796   1.515       .  S
N388        C389   1.371   1_565  A
C389        N390   1.370       .  A
N390        C391   1.366       .  A
C391        N392   1.359       .  A
C391        C628   1.516       .  S
O393       Ni399   1.918       .  S
O393        C414   1.270       .  A
O394       Ni417   1.920       .  S
O394        C403   1.273       .  A
O395       Ni399   1.888       .  S
O395       Ni417   1.901       .  S
O395       Ni411   1.911       .  S
O395        H418   0.968       .  S
C396        C561   1.472       .  S
C396        O413   1.280       .  A
C396        O405   1.278       .  A
O397       Ni416   1.925       .  S
O397        C403   1.273       .  A
O398       Ni416   1.918       .  S
O398        C400   1.270       .  A
Ni399       O402   1.913       .  S
Ni399       O404   1.901       .  S
C400        C631   1.498       .  S
C400        O410   1.281       .  A
O401       Ni417   1.925       .  S
O401        C407   1.280       .  A
O402        C407   1.278       .  A
C403        C586   1.492       .  S
O404        C406   1.267       .  A
O405       Ni416   1.913       .  S
C406        C575   1.493       .  S
C406        O412   1.278       .  A
C407        C600   1.468       .  S
H408        O409   0.972       .  S
O409       Ni417   1.909       .  S
O409       Ni411   1.902       .  S
O409       Ni416   1.887       .  S
O410       Ni411   1.963       .  S
Ni411       O415   1.933       .  S
Ni411       O413   1.926       .  S
O412       Ni417   1.960       .  S
C414        C614   1.497       .  S
C414        O415   1.276       .  A
C419        N420   1.357   1_655  A
C419        N424   1.362       .  A
C419        C715   1.486       .  S
N420        C421   1.357       .  A
C421        N422   1.364       .  A
C421        C617   1.497       .  S
N422        C423   1.363       .  A
C423        N424   1.361   1_455  A
C425        N426   1.352       .  A
C425        N430   1.353       .  A
C425        C603   1.471       .  S
N426        C427   1.354   1_554  A
C427        N428   1.354       .  A
C427        C964   1.479       .  S
N428        C429   1.360   1_556  A
C429        N430   1.359       .  A
C431        N432   1.357       .  A
C431        N436   1.365       .  A
C431        C701   1.485       .  S
N432        C433   1.358       .  A
C433        N434   1.362       .  A
C433        C589   1.491       .  S
N434        C435   1.360       .  A
C435        N436   1.364       .  A
C437        N438   1.353   1_565  A
C437        N442   1.368       .  A
C437        C866   1.498       .  S
N438        C439   1.355       .  A
C439        N440   1.365       .  A
C439        C687   1.498       .  S
N440        C441   1.367       .  A
C441        N442   1.368   1_545  A
C443        N444   1.354       .  A
C443        N448   1.358       .  A
C443       C1037   1.468       .  S
N444        C445   1.355       .  A
C445        N446   1.356   1_556  A
N446        C447   1.355       .  A
C447        N448   1.362   1_554  A
C447        C670   1.489       .  S
C449        N450   1.357       .  A
C449        N454   1.367       .  A
C449        C824   1.502       .  S
N450        C451   1.356       .  A
C451        N452   1.367       .  A
C451        C659   1.500       .  S
N452        C453   1.367       .  A
C453        N454   1.367       .  A
C455        N456   1.354       .  A
C455        N460   1.362       .  A
C455        C642   1.465       .  S
N456        C457   1.351       .  A
C457        N458   1.351       .  A
N458        C459   1.355       .  A
C459        N460   1.363       .  A
C459        C981   1.490       .  S
C461        N462   1.369       .  A
C461        N466   1.359       .  A
C461        C782   1.508       .  S
N462        C463   1.371       .  A
C463        N464   1.367       .  A
N464        C465   1.365       .  A
C465        N466   1.354       .  A
C465        C572   1.497       .  S
C467        N468   1.358       .  A
C467        N472   1.360   1_655  A
C467        C883   1.474       .  S
N468        C469   1.357   1_655  A
C469        N470   1.361       .  A
N470        C471   1.366       .  A
C471        N472   1.362       .  A
C471        C771   1.498       .  S
C473        N474   1.359       .  A
C473        N478   1.356       .  A
C473        C754   1.487       .  S
N474        C475   1.358   1_554  A
C475        N476   1.354       .  A
C475       C1121   1.481       .  S
N476        C477   1.353   1_556  A
C477        N478   1.353       .  A
C479        N480   1.360       .  A
C479        N484   1.361       .  A
C479        C855   1.489       .  S
N480        C481   1.358       .  A
C481        N482   1.362       .  A
N482        C483   1.366       .  A
C483        N484   1.361       .  A
C483        C743   1.503       .  S
C485        N486   1.355       .  A
C485        N490   1.357       .  A
C485       C1065   1.484       .  S
N486        C487   1.353       .  A
C487        N488   1.357       .  A
N488        C489   1.358       .  A
C489        N490   1.356       .  A
C489        C729   1.483       .  S
C491        N492   1.362       .  A
C491        N496   1.353       .  A
C491        C841   1.483       .  S
N492        C493   1.361   1_554  A
C493        N494   1.354       .  A
C493       C1191   1.485       .  S
N494        C495   1.352   1_556  A
C495        N496   1.353       .  A
C497        N498   1.356       .  A
C497        N502   1.354       .  A
C497        C953   1.466       .  S
N498        C499   1.356       .  A
C499        N500   1.355       .  A
C499        C558   1.467       .  S
N500        C501   1.356       .  A
C501        N502   1.356       .  A
C503        N504   1.361       .  A
C503        N508   1.359   1_655  A
C503       C1048   1.492       .  S
N504        C505   1.359   1_655  A
C505        N506   1.358       .  A
N506        C507   1.360       .  A
C507        N508   1.354       .  A
C507        C939   1.488       .  S
C509        N510   1.364       .  A
C509        N514   1.364   1_565  A
C509       C1135   1.505       .  S
N510        C511   1.366   1_565  A
C511        N512   1.369       .  A
N512        C513   1.368       .  A
C513        N514   1.360       .  A
C513        C922   1.507       .  S
C515        N516   1.360       .  A
C515        N520   1.358       .  A
C515       C1020   1.481       .  S
N516        C517   1.359       .  A
C517        N518   1.360       .  A
N518        C519   1.363       .  A
C519        N520   1.357       .  A
C519        C911   1.496       .  S
C521        N522   1.364       .  A
C521        N526   1.357       .  A
C521       C1107   1.497       .  S
N522        C523   1.370       .  A
C523        N524   1.371       .  A
N524        C525   1.368       .  A
C525        N526   1.357       .  A
C525        C897   1.512       .  S
C527        N528   1.367       .  A
C527        N532   1.354   1_565  A
C527       C1205   1.502       .  S
N528        C529   1.369   1_565  A
C529        N530   1.369       .  A
N530        C531   1.367       .  A
C531        N532   1.351       .  A
C531       C1009   1.504       .  S
C533        N534   1.360   1_655  A
C533        N538   1.363       .  A
C533       C1219   1.501       .  S
N534        C535   1.362       .  A
C535        N536   1.363       .  A
C535       C1093   1.499       .  S
N536        C537   1.360       .  A
C537        N538   1.360   1_455  A
C539        N540   1.362       .  A
C539        N544   1.369       .  A
C539       C1177   1.509       .  S
N540        C541   1.356       .  A
C541        N542   1.360       .  A
N542        C543   1.367       .  A
C543        N544   1.370       .  A
C543       C1079   1.512       .  S
C545        N546   1.366       .  A
C545        N550   1.358       .  A
C545       C1163   1.490       .  S
N546        C547   1.364       .  A
C547        N548   1.364       .  A
N548        C549   1.366       .  A
C549        N550   1.359       .  A
C549        C995   1.489       .  S
C551        N552   1.356       .  A
C551        N556   1.366       .  A
C551       C1149   1.486       .  S
N552        C553   1.352       .  A
C553        N554   1.350       .  A
N554        C555   1.352       .  A
C555        N556   1.361       .  A
C555        C813   1.477       .  S
C557        C558   1.399       .  A
C557        C562   1.394       .  A
C557        H564   1.084       .  S
C558        C559   1.411       .  A
C559        C560   1.401       .  A
C559        N566   1.429       .  S
C560        C561   1.403       .  A
C560        H565   1.084       .  S
C561        C562   1.411       .  A
C562        N563   1.430       .  S
N563        O567   1.262       .  A
N563        O568   1.262       .  A
N566        O570   1.262       .  A
N566        O569   1.262       .  A
C571        C572   1.413       .  A
C571        C576   1.412       .  A
C571        H578   1.084       .  S
C572        C573   1.409       .  A
C573        C574   1.403       .  A
C573        N580   1.429       .  S
C574        C575   1.407       .  A
C574        H579   1.080       .  S
C575        C576   1.409       .  A
C576        N577   1.429       .  S
N577        O581   1.262       .  A
N577        O582   1.262       .  A
N580        O584   1.262       .  A
N580        O583   1.262       .  A
C585        C586   1.408       .  A
C585        C590   1.399       .  A
C585        H592   1.084       .  S
C586        C587   1.413       .  A
C587        C588   1.405       .  A
C587        N594   1.429       .  S
C588        C589   1.409       .  A
C588        H593   1.084       .  S
C589        C590   1.412       .  A
C590        N591   1.430       .  S
N591        O595   1.262       .  A
N591        O596   1.262       .  A
N594        O598   1.262       .  A
N594        O597   1.262       .  A
C599        C600   1.404       .  A
C599        C604   1.405       .  A
C599        H606   1.084       .  S
C600        C601   1.410       .  A
C601        C602   1.389       .  A
C601        N608   1.430       .  S
C602        C603   1.400       .  A
C602        H607   1.084       .  S
C603        C604   1.409       .  A
C604        N605   1.427       .  S
N605        O609   1.262       .  A
N605        O610   1.262       .  A
N608        O612   1.262       .  A
N608        O611   1.262       .  A
C613        C614   1.410       .  A
C613        C618   1.400       .  A
C613        H620   1.083       .  S
C614        C615   1.411       .  A
C615        C616   1.407       .  A
C615        N622   1.429       .  S
C616        C617   1.413       .  A
C616        H621   1.083       .  S
C617        C618   1.412       .  A
C618        N619   1.429       .  S
N619        O623   1.262       .  A
N619        O624   1.262       .  A
N622        O626   1.262       .  A
N622        O625   1.262       .  A
C627        C628   1.415       .  A
C627        C632   1.410       .  A
C627        H634   1.083       .  S
C628        C629   1.419       .  A
C629        C630   1.414       .  A
C629        N636   1.428       .  S
C630        C631   1.408       .  A
C630        H635   1.084       .  S
C631        C632   1.408       .  A
C632        N633   1.428       .  S
N633        O637   1.262       .  A
N633        O638   1.261       .  A
N636        O640   1.262       .  A
N636        O639   1.262       .  A
C641        C642   1.398       .  A
C641        C646   1.394       .  A
C641        H648   1.084       .  S
C642        C643   1.409       .  A
C643        C644   1.401       .  A
C643        N650   1.427       .  S
C644        C645   1.400       .  A
C644        H649   1.084       .  S
C645        C646   1.411       .  A
C646        N647   1.430       .  S
N647        O651   1.261       .  A
N647        O652   1.262       .  A
N650        O654   1.261       .  A
N650        O653   1.262       .  A
C655        C656   1.413       .  A
C655        C660   1.403       .  A
C655        H662   1.083       .  S
C656        C657   1.413       .  A
C657        C658   1.409       .  A
C657        N664   1.429       .  S
C658        C659   1.413       .  A
C658        H663   1.084       .  S
C659        C660   1.410       .  A
C660        N661   1.428       .  S
N661        O665   1.262       .  A
N661        O666   1.262       .  A
N664        O668   1.262       .  A
N664        O667   1.262       .  A
C669        C670   1.404       .  A
C669        C674   1.393       .  A
C669        H676   1.083       .  S
C670        C671   1.423       .  A
C671        C672   1.403       .  A
C671        N678   1.429       .  S
C672        C673   1.397       .  A
C672        H677   1.082       .  S
C673        C674   1.409       .  A
C674        N675   1.430       .  S
N675        O679   1.262       .  A
N675        O680   1.262       .  A
N678        O682   1.262       .  A
N678        O681   1.262       .  A
C683        C684   1.410       .  A
C683        C688   1.403       .  A
C683        H690   1.083       .  S
C684        C685   1.406       .  A
C685        C686   1.402       .  A
C685        N692   1.429       .  S
C686        C687   1.413       .  A
C686        H691   1.080       .  S
C687        C688   1.412       .  A
C688        N689   1.429       .  S
N689        O693   1.262       .  A
N689        O694   1.262       .  A
N692        O696   1.262       .  A
N692        O695   1.262       .  A
C697        C698   1.412       .  A
C697        C702   1.402       .  A
C697        H704   1.084       .  S
C698        C699   1.414       .  A
C699        C700   1.408       .  A
C699        N706   1.428       .  S
C700        C701   1.407       .  A
C700        H705   1.084       .  S
C701        C702   1.406       .  A
C702        N703   1.429       .  S
N703        O707   1.262       .  A
N703        O708   1.262       .  A
N706        O710   1.262       .  A
N706        O709   1.262       .  A
C711        C712   1.409       .  A
C711        C716   1.402       .  A
C711        H718   1.084       .  S
C712        C713   1.411       .  A
C713        C714   1.403       .  A
C713        N720   1.427       .  S
C714        C715   1.407       .  A
C714        H719   1.084       .  S
C715        C716   1.410       .  A
C716        N717   1.429       .  S
N717        O721   1.262       .  A
N717        O722   1.262       .  A
N720        O724   1.262       .  A
N720        O723   1.262       .  A
C725        C726   1.408       .  A
C725        C730   1.395       .  A
C725        H732   1.084       .  S
C726        C727   1.412       .  A
C727        C728   1.401       .  A
C727        N734   1.429       .  S
C728        C729   1.408       .  A
C728        H733   1.084       .  S
C729        C730   1.411       .  A
C730        N731   1.429       .  S
N731        O735   1.262       .  A
N731        O736   1.262       .  A
N734        O738   1.262       .  A
N734        O737   1.261       .  A
C739        C740   1.402       .  A
C739        C744   1.406       .  A
C739        H746   1.084       .  S
C740        C741   1.413       .  A
C741        C742   1.403       .  A
C741        N748   1.429       .  S
C742        C743   1.408       .  A
C742        H747   1.083       .  S
C743        C744   1.422       .  A
C744        N745   1.428       .  S
N745        O749   1.262       .  A
N745        O750   1.262       .  A
N748        O752   1.262       .  A
N748        O751   1.262       .  A
C753        C754   1.408       .  A
C753        C758   1.398       .  A
C753        H760   1.083       .  S
C754        C755   1.417       .  A
C755        C756   1.397       .  A
C755        N762   1.429       .  S
C756        C757   1.401       .  A
C756        H761   1.084       .  S
C757        C758   1.408       .  A
C758        N759   1.429       .  S
N759        O763   1.262       .  A
N759        O764   1.262       .  A
N762        O766   1.262       .  A
N762        O765   1.262       .  A
C767        C768   1.406       .  A
C767        C772   1.407       .  A
C767        H774   1.084       .  S
C768        C769   1.420       .  A
C769        C770   1.402       .  A
C769        N776   1.430       .  S
C770        C771   1.404       .  A
C770        H775   1.084       .  S
C771        C772   1.418       .  A
C772        N773   1.429       .  S
N773        O777   1.262       .  A
N773        O778   1.262       .  A
N776        O780   1.262       .  A
N776        O779   1.262       .  A
C781        C782   1.409       .  A
C781        C786   1.400       .  A
C781        H788   1.083       .  S
C782        C783   1.418       .  A
C783        C784   1.416       .  A
C783        N790   1.428       .  S
C784        C785   1.410       .  A
C784        H789   1.084       .  S
C785        C786   1.414       .  A
C786        N787   1.430       .  S
N787        O791   1.262       .  A
N787        O792   1.262       .  A
N790        O794   1.262       .  A
N790        O793   1.262       .  A
C795        C796   1.406       .  A
C795        C800   1.398       .  A
C795        H802   1.083       .  S
C796        C797   1.422       .  A
C797        C798   1.421       .  A
C797        N804   1.427       .  S
C798        C799   1.410       .  A
C798        H803   1.082       .  S
C799        C800   1.421       .  A
C800        N801   1.431       .  S
N801        O805   1.262       .  A
N801        O806   1.262       .  A
N804        O808   1.262       .  A
N804        O807   1.262       .  A
C809        C810   1.402       .  A
C809        C814   1.401       .  A
C809        H816   1.084       .  S
C810        C811   1.405       .  A
C811        C812   1.396       .  A
C811        N818   1.429       .  S
C812        C813   1.406       .  A
C812        H817   1.084       .  S
C813        C814   1.410       .  A
C814        N815   1.429       .  S
N815        O819   1.262       .  A
N815        O820   1.262       .  A
N818        O822   1.262       .  A
N818        O821   1.262       .  A
C823        C824   1.412       .  A
C823        C828   1.406       .  A
C823        H830   1.083       .  S
C824        C825   1.412       .  A
C825        C826   1.407       .  A
C825        N832   1.429       .  S
C826        C827   1.412       .  A
C826        H831   1.083       .  S
C827        C828   1.413       .  A
C828        N829   1.429       .  S
N829        O833   1.262       .  A
N829        O834   1.262       .  A
N832        O836   1.262       .  A
N832        O835   1.262       .  A
C837        C838   1.398       .  A
C837        C842   1.402       .  A
C837        H844   1.084       .  S
C838        C839   1.407       .  A
C839        C840   1.395       .  A
C839        N846   1.430       .  S
C840        C841   1.403       .  A
C840        H845   1.084       .  S
C841        C842   1.420       .  A
C842        N843   1.429       .  S
N843        O847   1.262       .  A
N843        O848   1.262       .  A
N846        O850   1.262       .  A
N846        O849   1.262       .  A
C851        C852   1.406       .  A
C851        C856   1.400       .  A
C851        H858   1.084       .  S
C852        C853   1.411       .  A
C853        C854   1.406       .  A
C853        N860   1.429       .  S
C854        C855   1.408       .  A
C854        H859   1.083       .  S
C855        C856   1.413       .  A
C856        N857   1.430       .  S
N857        O861   1.262       .  A
N857        O862   1.262       .  A
N860        O864   1.262       .  A
N860        O863   1.262       .  A
C865        C866   1.402       .  A
C865        C870   1.406       .  A
C865        H872   1.084       .  S
C866        C867   1.421       .  A
C867        C868   1.403       .  A
C867        N874   1.430       .  S
C868        C869   1.402       .  A
C868        H873   1.084       .  S
C869        C870   1.422       .  A
C870        N871   1.429       .  S
N871        O875   1.262       .  A
N871        O876   1.262       .  A
N874        O878   1.262       .  A
N874        O877   1.262       .  A
C879        C880   1.409       .  A
C879        C884   1.405       .  A
C879        H886   1.083       .  S
C880        C881   1.422       .  A
C881        C882   1.399       .  A
C881        N888   1.429       .  S
C882        C883   1.397       .  A
C882        H887   1.084       .  S
C883        C884   1.407       .  A
C884        N885   1.428       .  S
N885        O889   1.262       .  A
N885        O890   1.262       .  A
N888        O892   1.262       .  A
N888        O891   1.262       .  A
C893        C894   1.399       .  A
C893        C898   1.402       .  A
C893        H900   1.085       .  S
C894        C895   1.414       .  A
C895        C896   1.416       .  A
C895        N902   1.429       .  S
C896        C897   1.412       .  A
C896        H901   1.083       .  S
C897        C898   1.423       .  A
C898        N899   1.429       .  S
N899        O903   1.262       .  A
N899        O904   1.262       .  A
N902        O906   1.261       .  A
N902        O905   1.262       .  A
C907        C908   1.404       .  A
C907        C912   1.404       .  A
C907        H914   1.084       .  S
C908        C909   1.419       .  A
C909        C910   1.399       .  A
C909        N916   1.430       .  S
C910        C911   1.404       .  A
C910        H915   1.083       .  S
C911        C912   1.420       .  A
C912        N913   1.429       .  S
N913        O917   1.262       .  A
N913        O918   1.262       .  A
N916        O920   1.262       .  A
N916        O919   1.262       .  A
C921        C922   1.406       .  A
C921        C926   1.411       .  A
C921        H928   1.084       .  S
C922        C923   1.421       .  A
C923        C924   1.412       .  A
C923        N930   1.429       .  S
C924        C925   1.404       .  A
C924        H929   1.084       .  S
C925        C926   1.418       .  A
C926        N927   1.429       .  S
N927        O931   1.262       .  A
N927        O932   1.262       .  A
N930        O934   1.262       .  A
N930        O933   1.262       .  A
C935        C936   1.403       .  A
C935        C940   1.404       .  A
C935        H942   1.084       .  S
C936        C937   1.418       .  A
C937        C938   1.396       .  A
C937        N944   1.430       .  S
C938        C939   1.401       .  A
C938        H943   1.084       .  S
C939        C940   1.418       .  A
C940        N941   1.429       .  S
N941        O945   1.262       .  A
N941        O946   1.262       .  A
N944        O948   1.262       .  A
N944        O947   1.262       .  A
C949        C950   1.403       .  A
C949        C954   1.400       .  A
C949        H956   1.084       .  S
C950        C951   1.411       .  A
C951        C952   1.396       .  A
C951        N958   1.430       .  S
C952        C953   1.399       .  A
C952        H957   1.084       .  S
C953        C954   1.409       .  A
C954        N955   1.429       .  S
N955        O959   1.262       .  A
N955        O960   1.262       .  A
N958        O962   1.262       .  A
N958        O961   1.262       .  A
C963        C964   1.401       .  A
C963        C968   1.385       .  A
C963        H970   1.084       .  S
C964        C965   1.413       .  A
C965        C966   1.408       .  A
C965        N972   1.428       .  S
C966        C967   1.407       .  A
C966        H971   1.084       .  S
C967        C968   1.415       .  A
C968        N969   1.432       .  S
N969        O973   1.262       .  A
N969        O974   1.261       .  A
N972        O976   1.262       .  A
N972        O975   1.262       .  A
C977        C978   1.404       .  A
C977        C982   1.399       .  A
C977        H984   1.085       .  S
C978        C979   1.403       .  A
C979        C980   1.398       .  A
C979        N986   1.428       .  S
C980        C981   1.411       .  A
C980        H985   1.083       .  S
C981        C982   1.412       .  A
C982        N983   1.428       .  S
N983        O987   1.262       .  A
N983        O988   1.261       .  A
N986        O990   1.262       .  A
N986        O989   1.261       .  A
C991        C992   1.405       .  A
C991        C996   1.405       .  A
C991        H998   1.083       .  S
C992        C993   1.423       .  A
C993        C994   1.403       .  A
C993       N1000   1.430       .  S
C994        C995   1.401       .  A
C994        H999   1.084       .  S
C995        C996   1.415       .  A
C996        N997   1.431       .  S
N997       O1001   1.262       .  A
N997       O1002   1.262       .  A
N1000      O1004   1.262       .  A
N1000      O1003   1.262       .  A
C1005      C1006   1.396       .  A
C1005      C1010   1.400       .  A
C1005      H1012   1.084       .  S
C1006      C1007   1.419       .  A
C1007      C1008   1.406       .  A
C1007      N1014   1.429       .  S
C1008      C1009   1.405       .  A
C1008      H1013   1.083       .  S
C1009      C1010   1.426       .  A
C1010      N1011   1.428       .  S
N1011      O1015   1.262       .  A
N1011      O1016   1.263       .  A
N1014      O1018   1.262       .  A
N1014      O1017   1.262       .  A
C1019      C1020   1.404       .  A
C1019      C1024   1.402       .  A
C1019      H1026   1.084       .  S
C1020      C1021   1.408       .  A
C1021      C1022   1.400       .  A
C1021      N1028   1.430       .  S
C1022      C1023   1.411       .  A
C1022      H1027   1.084       .  S
C1023      C1024   1.413       .  A
C1024      N1025   1.426       .  S
N1025      O1029   1.261       .  A
N1025      O1030   1.262       .  A
N1028      O1032   1.262       .  A
N1028      O1031   1.262       .  A
C1033      C1034   1.402       .  A
C1033      C1038   1.402       .  A
C1033      H1040   1.084       .  S
C1034      C1035   1.414       .  A
C1035      C1036   1.396       .  A
C1035      N1042   1.431       .  S
C1036      C1037   1.397       .  A
C1036      H1041   1.084       .  S
C1037      C1038   1.410       .  A
C1038      N1039   1.429       .  S
N1039      O1043   1.262       .  A
N1039      O1044   1.262       .  A
N1042      O1046   1.262       .  A
N1042      O1045   1.261       .  A
C1047      C1048   1.411       .  A
C1047      C1052   1.398       .  A
C1047      H1054   1.081       .  S
C1048      C1049   1.417       .  A
C1049      C1050   1.400       .  A
C1049      N1056   1.429       .  S
C1050      C1051   1.401       .  A
C1050      H1055   1.085       .  S
C1051      C1052   1.403       .  A
C1052      N1053   1.430       .  S
N1053      O1057   1.261       .  A
N1053      O1058   1.262       .  A
N1056      O1060   1.262       .  A
N1056      O1059   1.262       .  A
C1061      C1062   1.400       .  A
C1061      C1066   1.394       .  A
C1061      H1068   1.084       .  S
C1062      C1063   1.407       .  A
C1063      C1064   1.397       .  A
C1063      N1070   1.429       .  S
C1064      C1065   1.409       .  A
C1064      H1069   1.083       .  S
C1065      C1066   1.416       .  A
C1066      N1067   1.429       .  S
N1067      O1071   1.262       .  A
N1067      O1072   1.262       .  A
N1070      O1074   1.262       .  A
N1070      O1073   1.262       .  A
C1075      C1076   1.395       .  A
C1075      C1080   1.402       .  A
C1075      H1082   1.085       .  S
C1076      C1077   1.410       .  A
C1077      C1078   1.408       .  A
C1077      N1084   1.429       .  S
C1078      C1079   1.413       .  A
C1078      H1083   1.083       .  S
C1079      C1080   1.422       .  A
C1080      N1081   1.422       .  S
N1081      O1085   1.261       .  A
N1081      O1086   1.263       .  A
N1084      O1088   1.262       .  A
N1084      O1087   1.262       .  A
C1089      C1090   1.406       .  A
C1089      C1094   1.401       .  A
C1089      H1096   1.084       .  S
C1090      C1091   1.410       .  A
C1091      C1092   1.406       .  A
C1091      N1098   1.429       .  S
C1092      C1093   1.411       .  A
C1092      H1097   1.082       .  S
C1093      C1094   1.416       .  A
C1094      N1095   1.429       .  S
N1095      O1099   1.262       .  A
N1095      O1100   1.262       .  A
N1098      O1102   1.262       .  A
N1098      O1101   1.262       .  A
C1103      C1104   1.411       .  A
C1103      C1108   1.417       .  A
C1103      H1110   1.083       .  S
C1104      C1105   1.417       .  A
C1105      C1106   1.399       .  A
C1105      N1112   1.430       .  S
C1106      C1107   1.402       .  A
C1106      H1111   1.083       .  S
C1107      C1108   1.415       .  A
C1108      N1109   1.428       .  S
N1109      O1113   1.262       .  A
N1109      O1114   1.262       .  A
N1112      O1116   1.262       .  A
N1112      O1115   1.262       .  A
C1117      C1118   1.404       .  A
C1117      C1122   1.394       .  A
C1117      H1124   1.084       .  S
C1118      C1119   1.414       .  A
C1119      C1120   1.398       .  A
C1119      N1126   1.429       .  S
C1120      C1121   1.405       .  A
C1120      H1125   1.084       .  S
C1121      C1122   1.414       .  A
C1122      N1123   1.429       .  S
N1123      O1127   1.262       .  A
N1123      O1128   1.262       .  A
N1126      O1130   1.262       .  A
N1126      O1129   1.262       .  A
C1131      C1132   1.408       .  A
C1131      C1136   1.416       .  A
C1131      H1138   1.084       .  S
C1132      C1133   1.414       .  A
C1133      C1134   1.399       .  A
C1133      N1140   1.430       .  S
C1134      C1135   1.405       .  A
C1134      H1139   1.082       .  S
C1135      C1136   1.420       .  A
C1136      N1137   1.428       .  S
N1137      O1141   1.262       .  A
N1137      O1142   1.262       .  A
N1140      O1144   1.262       .  A
N1140      O1143   1.262       .  A
C1145      C1146   1.399       .  A
C1145      C1150   1.402       .  A
C1145      H1152   1.084       .  S
C1146      C1147   1.414       .  A
C1147      C1148   1.394       .  A
C1147      N1154   1.430       .  S
C1148      C1149   1.402       .  A
C1148      H1153   1.083       .  S
C1149      C1150   1.420       .  A
C1150      N1151   1.429       .  S
N1151      O1155   1.262       .  A
N1151      O1156   1.262       .  A
N1154      O1158   1.262       .  A
N1154      O1157   1.262       .  A
C1159      C1160   1.406       .  A
C1159      C1164   1.408       .  A
C1159      H1166   1.083       .  S
C1160      C1161   1.422       .  A
C1161      C1162   1.402       .  A
C1161      N1168   1.429       .  S
C1162      C1163   1.400       .  A
C1162      H1167   1.084       .  S
C1163      C1164   1.416       .  A
C1164      N1165   1.431       .  S
N1165      O1169   1.262       .  A
N1165      O1170   1.262       .  A
N1168      O1172   1.262       .  A
N1168      O1171   1.262       .  A
C1173      C1174   1.394       .  A
C1173      C1178   1.402       .  A
C1173      H1180   1.085       .  S
C1174      C1175   1.409       .  A
C1175      C1176   1.404       .  A
C1175      N1182   1.430       .  S
C1176      C1177   1.413       .  A
C1176      H1181   1.083       .  S
C1177      C1178   1.420       .  A
C1178      N1179   1.420       .  S
N1179      O1183   1.262       .  A
N1179      O1184   1.262       .  A
N1182      O1186   1.262       .  A
N1182      O1185   1.262       .  A
C1187      C1188   1.406       .  A
C1187      C1192   1.394       .  A
C1187      H1194   1.084       .  S
C1188      C1189   1.406       .  A
C1189      C1190   1.403       .  A
C1189      N1196   1.428       .  S
C1190      C1191   1.412       .  A
C1190      H1195   1.084       .  S
C1191      C1192   1.411       .  A
C1192      N1193   1.430       .  S
N1193      O1197   1.262       .  A
N1193      O1198   1.262       .  A
N1196      O1200   1.262       .  A
N1196      O1199   1.262       .  A
C1201      C1202   1.411       .  A
C1201      C1206   1.407       .  A
C1201      H1208   1.084       .  S
C1202      C1203   1.406       .  A
C1203      C1204   1.399       .  A
C1203      N1210   1.430       .  S
C1204      C1205   1.413       .  A
C1204      H1209   1.077       .  S
C1205      C1206   1.412       .  A
C1206      N1207   1.428       .  S
N1207      O1211   1.262       .  A
N1207      O1212   1.262       .  A
N1210      O1214   1.262       .  A
N1210      O1213   1.262       .  A
C1215      C1216   1.400       .  A
C1215      C1220   1.407       .  A
C1215      H1222   1.084       .  S
C1216      C1217   1.409       .  A
C1217      C1218   1.400       .  A
C1217      N1224   1.429       .  S
C1218      C1219   1.408       .  A
C1218      H1223   1.083       .  S
C1219      C1220   1.422       .  A
C1220      N1221   1.428       .  S
N1221      O1225   1.262       .  A
N1221      O1226   1.262       .  A
N1224      O1228   1.262       .  A
N1224      O1227   1.262       .  A
