geometry optimzed in LAMMPS
_audit_creation_date              2020-11-30 
_audit_creation_method            'lammps2cif' 
_symmetry_space_group_name_H-M    'P1' 
_symmetry_Int_Tables_number       1 
_symmetry_cell_setting            triclinic 
loop_ 
_symmetry_equiv_pos_as_xyz 
  x,y,z 
_cell_length_a                    28.85290309 
_cell_length_b                    28.903063929396634 
_cell_length_c                    28.820585338405966 
_cell_angle_alpha                 89.96122175699163 
_cell_angle_beta                  90.01971248930666 
_cell_angle_gamma                 89.98493272791912 
loop_ 
_atom_site_label 
_atom_site_type_symbol 
_atom_site_fract_x 
_atom_site_fract_y 
_atom_site_fract_z 
_atom_site_charge 
O1          O  0.58619278  0.72149677  0.67227534    -0.77800
C2          C  0.71753206  0.71609468  0.57651475     0.83300
O3          O  0.55821920  0.63560621  0.54538084    -0.78900
O4          O  0.70901073  0.57080262  0.57165987    -0.80300
O5          O  0.68511558  0.58374244  0.72733751    -0.80100
O6          O  0.59538251  0.67462791  0.73274773    -0.78800
Zn7        Zn  0.62792494  0.69584781  0.62290789     1.55700
O8          O  0.74013903  0.58992417  0.67336004    -0.80200
Cd9        Cd  0.63110444  0.62150841  0.69882380     1.59700
Cd10       Cd  0.59631881  0.58934798  0.59120380     1.59600
O11         O  0.58432687  0.57246795  0.70588751    -0.80200
O12         O  0.63812100  0.63079163  0.63131497    -1.90700
Cd13       Cd  0.70412894  0.62044070  0.61917949     1.59900
O14         O  0.55324177  0.54987336  0.63873008    -0.80100
O15         O  0.73132209  0.67469116  0.58222590    -0.78800
C16         C  0.56050443  0.68011556  0.54425854     0.83800
C17         C  0.57460696  0.70817353  0.71268731     0.83400
O18         O  0.68315327  0.73261151  0.59894266    -0.77700
C19         C  0.72437395  0.57226131  0.71072008     0.84200
O20         O  0.58626682  0.70235274  0.57158933    -0.77800
C21         C  0.55654900  0.54762141  0.68327120     0.84400
C22         C  0.68442591  0.54359902  0.54783940     0.84700
O23         O  0.63994434  0.54342664  0.55069923    -0.80200
O24         O  0.81965391  0.58674616  0.27013034    -0.77800
C25         C  0.92054137  0.71359632  0.28007213     0.83300
O26         O  0.95022181  0.56101344  0.36113799    -0.78900
O27         O  0.91149846  0.70634628  0.42528925    -0.80300
O28         O  0.76609808  0.67896499  0.41207118    -0.80100
O29         O  0.75781770  0.59823441  0.31500954    -0.78800
Zn30       Zn  0.87012615  0.62587846  0.29682782     1.55700
O31         O  0.81284754  0.73788580  0.39527790    -0.80200
Cd32       Cd  0.79236592  0.62676220  0.37113506     1.59700
Cd33       Cd  0.89863243  0.59389452  0.40372787     1.59600
O34         O  0.78545363  0.57479450  0.41551778    -0.80200
O35         O  0.85917900  0.63510853  0.36128123    -1.90700
Cd36       Cd  0.86924425  0.70119903  0.37113311     1.59900
O37         O  0.85333533  0.54512157  0.43759484    -0.80100
O38         O  0.91054187  0.72803712  0.32047381    -0.78800
C39         C  0.95113957  0.56168223  0.31662481     0.83800
C40         C  0.77848251  0.57664160  0.28242337     0.83400
O41         O  0.89889371  0.67985958  0.26144429    -0.77700
C42         C  0.78022012  0.72004980  0.41912196     0.84200
O43         O  0.92172708  0.58411630  0.29332396    -0.77800
C44         C  0.80880916  0.54584229  0.43847514     0.84400
C45         C  0.93283190  0.68182834  0.45462875     0.84700
O46         O  0.93139236  0.63746274  0.45407333    -0.80200
O47         O  0.93164146  0.48516611  0.16636415    -0.77800
C48         C  0.83046360  0.47228421  0.04025169     0.83300
O49         O  0.80432424  0.38749669  0.20107598    -0.78900
O50         O  0.83624298  0.33220396  0.04679526    -0.80300
O51         O  0.98580560  0.33970696  0.08348747    -0.80100
O52         O  0.99355208  0.43965173  0.15867566    -0.78800
Zn53       Zn  0.87891804  0.45482398  0.13225061     1.55700
O54         O  0.93932119  0.35275016  0.02303117    -0.80200
Cd55       Cd  0.95867888  0.38170293  0.13401029     1.59700
Cd56       Cd  0.85257295  0.34589248  0.16197395     1.59600
O57         O  0.96726851  0.33785034  0.18680885    -0.80200
O58         O  0.89152674  0.39069844  0.12282201    -1.90700
Cd59       Cd  0.88280734  0.38223024  0.05552265     1.59900
O60         O  0.89918587  0.30702643  0.20666890    -0.80100
O61         O  0.84580093  0.43434490  0.02403908    -0.78800
C62         C  0.80367355  0.43192803  0.20255464     0.83800
C63         C  0.97347728  0.47482002  0.17625730     0.83400
O64         O  0.84483243  0.48820363  0.07900012    -0.77700
C65         C  0.97236350  0.33074040  0.04249815     0.84200
O66         O  0.83117434  0.45607706  0.17860697    -0.77800
C67         C  0.94360319  0.30971648  0.21047923     0.84400
C68         C  0.81348183  0.30306496  0.07009246     0.84700
O69         O  0.81597814  0.30101418  0.11462824    -0.80200
C70         C  0.74314808  0.55804197  0.99858927     0.81000
N71         N  0.78191260  0.54002310  0.01876794    -0.77300
C72         C  0.79049956  0.49397490  0.01630514     0.83400
N73         N  0.75940425  0.46620463  0.99445108    -0.77300
C74         C  0.71957377  0.48323744  0.97559396     0.83500
N75         N  0.71187048  0.52972116  0.97693793    -0.79000
C76         C  0.05968574  0.52296622  0.25940587     0.81000
N77         N  0.03103611  0.53996596  0.29306958    -0.77300
C78         C  0.98436586  0.53599312  0.28786534     0.83400
N79         N  0.96725208  0.51699918  0.24840116    -0.77300
C80         C  0.99529151  0.50000769  0.21491182     0.83500
N81         N  0.04183836  0.50229885  0.22080806    -0.79000
O82         O  0.59316999  0.26543508  0.82539265    -0.77800
C83         C  0.72392901  0.28084917  0.92835421     0.83300
O84         O  0.56227572  0.35841353  0.95102162    -0.78900
O85         O  0.71641675  0.42334899  0.92285473    -0.80300
O86         O  0.68733165  0.40691919  0.76892951    -0.80100
O87         O  0.59965404  0.31449983  0.76615439    -0.78800
Zn88       Zn  0.63288486  0.29476176  0.87660600     1.55700
O89         O  0.74416382  0.40075115  0.82099715    -0.80200
Cd90       Cd  0.63427300  0.36889069  0.79875482     1.59700
Cd91       Cd  0.60226981  0.40339808  0.90570202     1.59600
O92         O  0.58628900  0.41721973  0.79081776    -0.80200
O93         O  0.64290638  0.36020652  0.86627518    -1.90700
Cd94       Cd  0.70950748  0.37180698  0.87686572     1.59900
O95         O  0.55843334  0.44222029  0.85844462    -0.80100
O96         O  0.73905030  0.31997616  0.91501767    -0.78800
C97         C  0.56132966  0.31382590  0.95095750     0.83800
C98         C  0.58036991  0.27962682  0.78539099     0.83400
O99         O  0.68720676  0.26280909  0.91105990    -0.77700
C100        C  0.72707161  0.41850679  0.78426035     0.84200
O101        O  0.58667197  0.29041688  0.92424845    -0.77800
C102        C  0.55953912  0.44292101  0.81378744     0.84400
C103        C  0.69201298  0.45134543  0.94598963     0.84700
O104        O  0.64738384  0.45052912  0.94407759    -0.80200
O105        O  0.47643642  0.16213472  0.92733273    -0.77800
C106        C  0.46277206  0.03356916  0.82842403     0.83300
O107        O  0.38662130  0.19852803  0.80003046    -0.78900
O108        O  0.32018237  0.04170865  0.82661416    -0.80300
O109        O  0.33363678  0.07550550  0.98391359    -0.80100
O110        O  0.42544573  0.16273735  0.98518138    -0.78800
Zn111      Zn  0.44567717  0.12567331  0.87593392     1.55700
O112        O  0.33806556  0.01797624  0.93239966    -0.80200
Cd113      Cd  0.36971915  0.12922309  0.95233405     1.59700
Cd114      Cd  0.33810097  0.15779481  0.84278067     1.59600
O115        O  0.32014666  0.17675834  0.95857074    -0.80200
O116        O  0.37959792  0.11749315  0.88490605    -1.90700
Cd117      Cd  0.36876787  0.05022936  0.87536601     1.59900
O118        O  0.29419596  0.20018209  0.88948215    -0.80100
O119        O  0.42238901  0.01909190  0.83876791    -0.78800
C120        C  0.43143236  0.19768696  0.80097939     0.83800
C121        C  0.46327112  0.17672131  0.96688165     0.83400
O122        O  0.47906571  0.07078375  0.84587139    -0.77700
C123        C  0.32218967  0.03522613  0.96998753     0.84200
O124        O  0.45298824  0.17115642  0.82811787    -0.77800
C125        C  0.29298290  0.20104311  0.93440284     0.84400
C126        C  0.29599387  0.06535854  0.79885148     0.84700
O127        O  0.29684835  0.11011168  0.79935840    -0.80200
C128        C  0.51551401  0.25498227  0.05515750     0.81000
N129        N  0.49249779  0.21868813  0.03580655    -0.77300
C130        C  0.49003010  0.21458524  0.98903592     0.83400
N131        N  0.51011007  0.24770470  0.96206290    -0.77300
C132        C  0.53146449  0.28534496  0.98115468     0.83500
N133        N  0.53492219  0.28829107  0.02799111    -0.79000
C134        C  0.48701615  0.25606171  0.69965257     0.81000
N135        N  0.45400456  0.23513143  0.72634141    -0.77300
C136        C  0.46261820  0.22686853  0.77199859     0.83400
N137        N  0.50503028  0.23864975  0.78994277    -0.77300
C138        C  0.53810901  0.25956565  0.76346330     0.83500
N139        N  0.52846910  0.26848578  0.71831594    -0.79000
C140        C  0.56062466  0.98536465  0.76020309     0.81000
N141        N  0.53617975  0.00545646  0.79508562    -0.77300
C142        C  0.48940385  0.00918726  0.79188084     0.83400
N143        N  0.46767196  0.99442027  0.75236729    -0.77300
C144        C  0.49250001  0.97540663  0.71673704     0.83500
N145        N  0.53886257  0.97020331  0.72143258    -0.79000
C146        C  0.92935095  0.99573969  0.26009183     0.81000
N147        N  0.95262867  0.01283648  0.22303866    -0.77300
C148        C  0.99951711  0.01181046  0.22234044     0.83400
N149        N  0.02289102  0.99532021  0.26004393    -0.77300
C150        C  0.99939222  0.97905142  0.29775212     0.83500
N151        N  0.95251034  0.97843041  0.29711011    -0.79000
C152        C  0.23488595  0.29735279  0.99804989     0.81000
N153        N  0.25743149  0.27442819  0.96314164    -0.77300
C154        C  0.25919075  0.22739117  0.96329780     0.83400
N155        N  0.23939706  0.20428294  0.99954562    -0.77300
C156        C  0.21789841  0.22664331  0.03517946     0.83500
N157        N  0.21510570  0.27349046  0.03384389    -0.79000
C158        C  0.25432963  0.93885680  0.02034616     0.81000
N159        N  0.28911343  0.96287475  0.99977565    -0.77300
C160        C  0.28615559  0.00947208  0.99563709     0.83400
N161        N  0.24695338  0.03150203  0.01042184    -0.77300
C162        C  0.21138199  0.00704251  0.02990653     0.83500
N163        N  0.21574867  0.96079139  0.03550149    -0.79000
C164        C  0.29005662  0.99494015  0.25643398     0.81000
N165        N  0.26629360  0.96006873  0.27757221    -0.77300
C166        C  0.21946413  0.96172110  0.27944735     0.83400
N167        N  0.19722039  0.99887447  0.26070218    -0.78900
C168        C  0.22059608  0.03406254  0.23961030     0.83500
N169        N  0.26741097  0.03161779  0.23708129    -0.79000
C170        C  0.00589902  0.25053929  0.94977581     0.81000
N171        N  0.99316480  0.28960099  0.97207471    -0.77300
C172        C  0.99164803  0.29029964  0.01884097     0.83400
N173        N  0.00126821  0.25086692  0.04306594    -0.77300
C174        C  0.01301834  0.21117656  0.02025143     0.83500
N175        N  0.01603206  0.21151408  0.97351088    -0.79000
C176        C  0.00222255  0.25141553  0.30962753     0.81000
N177        N  0.03736102  0.22915780  0.28703110    -0.77300
C178        C  0.04100985  0.23249790  0.24017212     0.83400
N179        N  0.00807936  0.25655431  0.21660680    -0.77300
C180        C  0.97214701  0.27774371  0.23843548     0.83500
N181        N  0.96960065  0.27571969  0.28540150    -0.79000
O182        O  0.06542272  0.02038424  0.17420424    -0.77800
C183        C  0.17102710  0.03118216  0.04976015     0.83300
O184        O  0.19876220  0.10893333  0.20460519    -0.78900
O185        O  0.15934795  0.17399210  0.04563654    -0.80300
O186        O  0.01905094  0.16735731  0.08871898    -0.80100
O187        O  0.00784153  0.07092422  0.16618122    -0.78800
Zn188      Zn  0.11830050  0.04856904  0.13809545     1.55700
O189        O  0.05787895  0.14285945  0.02677125    -0.80200
Cd190      Cd  0.04540038  0.12580039  0.13979556     1.59700
Cd191      Cd  0.15532287  0.15555059  0.16322440     1.59600
O192        O  0.04156586  0.17032233  0.19184253    -0.80200
O193        O  0.11119502  0.11342780  0.12734608    -1.90700
Cd194      Cd  0.11763385  0.12095816  0.05966680     1.59900
O195        O  0.11181228  0.19925538  0.20696234    -0.80100
O196        O  0.15944605  0.07012387  0.03291675    -0.78800
C197        C  0.19371856  0.06472857  0.20854328     0.83800
C198        C  0.02493407  0.03456008  0.18442014     0.83400
O199        O  0.15141179  0.01460720  0.08586369    -0.77700
C200        C  0.02945846  0.17068481  0.04608467     0.84200
O201        O  0.16414963  0.04306359  0.18501725    -0.77800
C202        C  0.06749971  0.19839378  0.21297270     0.84400
C203        C  0.18848518  0.19868347  0.06681941     0.84700
O204        O  0.19335577  0.19664116  0.11139264    -0.80200
O205        O  0.48329669  0.83301337  0.56939269    -0.77800
C206        C  0.46874179  0.95520987  0.67604036     0.83300
O207        O  0.38622220  0.79943080  0.69761011    -0.78900
O208        O  0.32819114  0.95778011  0.66498245    -0.80300
O209        O  0.33568679  0.91578169  0.51860357    -0.80100
O210        O  0.43512888  0.83905342  0.50943723    -0.78800
Zn211      Zn  0.45176347  0.86675621  0.62200331     1.55700
O212        O  0.35271687  0.97747872  0.56196035    -0.80200
Cd213      Cd  0.37792623  0.86517376  0.54518513     1.59700
Cd214      Cd  0.34238891  0.84132056  0.65299253     1.59600
O215        O  0.33399267  0.81229444  0.53850186    -0.80200
O216        O  0.38723464  0.87785491  0.61193010    -1.90700
Cd217      Cd  0.37971474  0.94544899  0.62040585     1.59900
O218        O  0.30112200  0.79782699  0.60717945    -0.80100
O219        O  0.43129178  0.97349721  0.66160424    -0.78800
C220        C  0.43055829  0.79488721  0.69470432     0.83800
C221        C  0.47135586  0.82205169  0.52828171     0.83400
O222        O  0.48416820  0.91751560  0.65885363    -0.77700
C223        C  0.32841241  0.95741411  0.53082173     0.84200
O224        O  0.45425227  0.81833496  0.66659765    -0.77800
C225        C  0.30451899  0.79125560  0.56305468     0.84400
C226        C  0.30050583  0.93588175  0.69074770     0.84700
O227        O  0.29959279  0.89119515  0.69143862    -0.80200
O228        O  0.06487298  0.96989837  0.34620406    -0.77800
C229        C  0.16864223  0.95475466  0.47070039     0.83300
O230        O  0.19588249  0.88585682  0.30959938    -0.78900
O231        O  0.16481454  0.81216573  0.46337285    -0.80300
O232        O  0.01492047  0.82739142  0.43380270    -0.80100
O233        O  0.00749719  0.91913732  0.35291942    -0.78800
Zn234      Zn  0.11733602  0.94092113  0.38172876     1.55700
O235        O  0.06293770  0.83500269  0.49377724    -0.80200
Cd236      Cd  0.04414554  0.86449742  0.38087712     1.59700
Cd237      Cd  0.15318348  0.83744518  0.34854256     1.59600
O238        O  0.04011437  0.81907627  0.32951565    -0.80200
O239        O  0.11034742  0.87568174  0.39058024    -1.90700
Cd240      Cd  0.11922762  0.86326378  0.45767964     1.59900
O241        O  0.10918331  0.79809203  0.30185053    -0.80100
O242        O  0.16007542  0.91424102  0.48560889    -0.78800
C243        C  0.19248401  0.93027370  0.30957110     0.83800
C244        C  0.02457543  0.95580461  0.33544091     0.83400
O245        O  0.14666335  0.97258479  0.43665066    -0.77700
C246        C  0.02705583  0.81726568  0.47500333     0.84200
O247        O  0.16417060  0.95084326  0.33557392    -0.77800
C248        C  0.06459716  0.79605331  0.30149830     0.84400
C249        C  0.19297523  0.78962674  0.43870049     0.84700
O250        O  0.19448167  0.79373579  0.39415347    -0.80200
C251        C  0.97949304  0.73461050  0.56208369     0.81000
N252        N  0.00144272  0.77235512  0.54403908    -0.77300
C253        C  0.00189210  0.77903632  0.49751165     0.83400
N254        N  0.98143795  0.74736225  0.46974979    -0.77300
C255        C  0.96090210  0.70890124  0.48711544     0.83500
N256        N  0.95910887  0.70276307  0.53374936    -0.79000
C257        C  0.24759940  0.05014342  0.49821519     0.81000
N258        N  0.20891798  0.02650413  0.48688119    -0.77300
C259        C  0.20858819  0.97988864  0.48938107     0.83400
N260        N  0.24819590  0.95705615  0.50159918    -0.77300
C261        C  0.28750547  0.98120358  0.51225241     0.83500
N262        N  0.28665624  0.02791641  0.51126549    -0.79000
C263        C  0.25070209  0.69271066  0.50038161     0.81000
N264        N  0.27361470  0.71639354  0.53442439    -0.77300
C265        C  0.27173892  0.76336809  0.53541982     0.83400
N266        N  0.24851663  0.78581814  0.50114347    -0.77300
C267        C  0.22637130  0.76280028  0.46653056     0.83500
N268        N  0.22675193  0.71586689  0.46673192    -0.79000
C269        C  0.01640986  0.73641713  0.19731651     0.81000
N270        N  0.97444023  0.72299086  0.21410212    -0.77300
C271        C  0.96293058  0.73221410  0.25859404     0.83400
N272        N  0.99418934  0.75379345  0.28611906    -0.77300
C273        C  0.03669726  0.76658257  0.27030518     0.83500
N274        N  0.04770934  0.75856016  0.22517407    -0.79000
C275        C  0.20051255  0.00282812  0.73759746     0.81000
N276        N  0.22486923  0.96783553  0.71704025    -0.77300
C277        C  0.27178880  0.96641164  0.72072924     0.83400
N278        N  0.29372151  0.00102875  0.74418294    -0.77300
C279        C  0.27012098  0.03644400  0.76469688     0.83500
N280        N  0.22305888  0.03681768  0.76178782    -0.79000
C281        C  0.76120885  0.19762503  0.01946299     0.81000
N282        N  0.74296529  0.21452008  0.97933817    -0.77300
C283        C  0.74648776  0.26014768  0.96953328     0.83400
N284        N  0.76767636  0.28846428  0.00068115    -0.77300
C285        C  0.78462662  0.27202889  0.04167293     0.83500
N286        N  0.78198085  0.22614324  0.05069745    -0.79000
C287        C  0.48477882  0.74242222  0.79814318     0.81000
N288        N  0.52475243  0.72556445  0.77988095    -0.77300
C289        C  0.53270230  0.72878664  0.73380299     0.83400
N290        N  0.49978525  0.74837121  0.70628236    -0.77300
C291        C  0.45892962  0.76430417  0.72415658     0.83500
N292        N  0.45193227  0.76205841  0.77056732    -0.79000
C293        C  0.51369178  0.73876444  0.43949548     0.81000
N294        N  0.49484263  0.77740192  0.45884813    -0.77300
C295        C  0.49610971  0.78341921  0.50545390     0.83400
N296        N  0.51527972  0.74982159  0.53228662    -0.77300
C297        C  0.53265203  0.71014485  0.51355949     0.83500
N298        N  0.53264601  0.70505042  0.46671573    -0.79000
C299        C  0.76005535  0.81304376  0.50415485     0.81000
N300        N  0.74328511  0.78926846  0.54117224    -0.77300
C301        C  0.73801602  0.74278421  0.53828238     0.83400
N302        N  0.74780310  0.72084192  0.49761597    -0.77300
C303        C  0.76316249  0.74497371  0.46008681     0.83500
N304        N  0.77013504  0.79106018  0.46392707    -0.79000
C305        C  0.46098404  0.49590047  0.75087606     0.81000
N306        N  0.48342186  0.51694817  0.71503204    -0.77300
C307        C  0.53024859  0.51581776  0.71315602     0.83400
N308        N  0.55389048  0.49466835  0.74805492    -0.77300
C309        C  0.53191086  0.47420281  0.78438487     0.83500
N310        N  0.48498873  0.47433383  0.78543747    -0.79000
C311        C  0.82106455  0.49744155  0.74829522     0.81000
N312        N  0.79854094  0.45935018  0.76390300    -0.77300
C313        C  0.75166773  0.45751830  0.76240033     0.83400
N314        N  0.72749622  0.49518443  0.74705346    -0.77300
C315        C  0.75022886  0.53392167  0.73226305     0.83500
N316        N  0.79712144  0.53436695  0.73203068    -0.79000
C317        C  0.74355868  0.44632122  0.48680087     0.81000
N318        N  0.71047985  0.46922795  0.51197803    -0.77300
C319        C  0.71175217  0.51617008  0.51444954     0.83400
N320        N  0.74665992  0.53898472  0.49298672    -0.77300
C321        C  0.78009749  0.51679476  0.46876603     0.83500
N322        N  0.77819634  0.47008187  0.46498116    -0.79000
C323        C  0.69797074  0.47950381  0.25905902     0.81000
N324        N  0.71375867  0.52194705  0.27185318    -0.77300
C325        C  0.75827839  0.53391249  0.26351322     0.83400
N326        N  0.78687193  0.50263090  0.24350482    -0.77300
C327        C  0.77196873  0.45970577  0.23133922     0.83500
N328        N  0.72684577  0.44822606  0.23841184    -0.79000
O329        O  0.09932465  0.32648211  0.73011970    -0.77800
C330        C  0.22477064  0.42424215  0.70733217     0.83300
O331        O  0.05258866  0.44954452  0.63555925    -0.78900
O332        O  0.20823354  0.42922032  0.57165609    -0.80300
O333        O  0.18098804  0.26637559  0.59349377    -0.80100
O334        O  0.08764770  0.27479592  0.67409940    -0.78800
Zn335      Zn  0.13069053  0.37904820  0.69501356     1.55700
O336        O  0.22735263  0.32546569  0.57581874    -0.80200
Cd337      Cd  0.12597033  0.30223232  0.62137762     1.59700
Cd338      Cd  0.09428740  0.40847636  0.58859525     1.59600
O339        O  0.07905772  0.29374855  0.57194426    -0.80200
O340        O  0.13661573  0.36894140  0.62981956    -1.90700
Cd341      Cd  0.20291991  0.37791606  0.61697745     1.59900
O342        O  0.05218837  0.36160361  0.54676020    -0.80100
O343        O  0.24156878  0.40470253  0.67142614    -0.78800
C344        C  0.05659962  0.45109329  0.68000301     0.83800
C345        C  0.07876119  0.29076464  0.71408238     0.83400
O346        O  0.18411942  0.41512348  0.72172959    -0.77700
C347        C  0.21347308  0.28426033  0.56947869     0.84200
O348        O  0.08483632  0.42577926  0.70150286    -0.77800
C349        C  0.05214625  0.31698778  0.54658485     0.84400
C350        C  0.18337934  0.45429437  0.54587166     0.84700
O351        O  0.13877912  0.45219643  0.54639578    -0.80200
O352        O  0.56353148  0.15734500  0.48943909    -0.77800
C353        C  0.66986418  0.03572818  0.47215571     0.83300
O354        O  0.69028737  0.20016203  0.39283681    -0.78900
O355        O  0.66568959  0.03939423  0.33347743    -0.80300
O356        O  0.50844991  0.06938410  0.34729934    -0.80100
O357        O  0.51183251  0.16120953  0.43204495    -0.78800
Zn358      Zn  0.61848547  0.12637748  0.45600120     1.55700
O359        O  0.56474466  0.01685252  0.34269658    -0.80200
Cd360      Cd  0.54245175  0.12446806  0.37912131     1.59700
Cd361      Cd  0.65065388  0.15403750  0.34823816     1.59600
O362        O  0.53743097  0.17109646  0.32836245    -0.80200
O363        O  0.60898347  0.11468035  0.39069794    -1.90700
Cd364      Cd  0.61740341  0.04720919  0.38169540     1.59900
O365        O  0.60649163  0.19208023  0.30088647    -0.80100
O366        O  0.65131691  0.01558586  0.43730947    -0.78800
C367        C  0.68990199  0.20131462  0.43752424     0.83800
C368        C  0.52618942  0.17362699  0.47194850     0.83400
O369        O  0.65711091  0.07588961  0.48518845    -0.77700
C370        C  0.52529440  0.03230487  0.33017207     0.84200
O371        O  0.66393872  0.17500382  0.46078846    -0.77800
C372        C  0.56195746  0.19412294  0.30034923     0.84400
C373        C  0.69246289  0.06254115  0.30791833     0.84700
O374        O  0.69399356  0.10701934  0.30919820    -0.80200
C375        C  0.48250771  0.25837804  0.55924585     0.81000
N376        N  0.46199654  0.29050947  0.53112363    -0.77300
C377        C  0.46204851  0.28400664  0.48440808     0.83400
N378        N  0.48116288  0.24473025  0.46681896    -0.77300
C379        C  0.50191438  0.21279917  0.49437968     0.83500
N380        N  0.50305458  0.22004081  0.54083587    -0.79000
O381        O  0.40218521  0.31823074  0.25967850    -0.77800
C382        C  0.28041676  0.42215979  0.27692646     0.83300
O383        O  0.44986300  0.43829409  0.35983862    -0.78900
O384        O  0.28579113  0.42669710  0.41130403    -0.80300
O385        O  0.31060504  0.26281252  0.39052738    -0.80100
O386        O  0.40966307  0.26862114  0.31825268    -0.78800
Zn387      Zn  0.37181874  0.37251688  0.29392694     1.55700
O388        O  0.26516127  0.32327451  0.40568565    -0.80200
Cd389      Cd  0.36924597  0.29714509  0.36875498     1.59700
Cd390      Cd  0.39984986  0.40317629  0.40304737     1.59600
O391        O  0.41123984  0.28882839  0.42324631    -0.80200
O392        O  0.36062152  0.36374015  0.35875177    -1.90700
Cd393      Cd  0.29385568  0.37475561  0.36681002     1.59900
O394        O  0.43376501  0.35694601  0.45173779    -0.80100
O395        O  0.25978921  0.40123345  0.30984094    -0.78800
C396        C  0.45074466  0.43825450  0.31522214     0.83800
C397        C  0.42122664  0.28283236  0.27819351     0.83400
O398        O  0.32173288  0.41184654  0.26515523    -0.77700
C399        C  0.27736502  0.28168640  0.41265609     0.84200
O400        O  0.42227397  0.41513792  0.29154197    -0.77800
C401        C  0.43398932  0.31240602  0.45228767     0.84400
C402        C  0.30923104  0.45278960  0.43738330     0.84700
O403        O  0.35380205  0.45076386  0.43900743    -0.80200
C404        C  0.55884502  0.47686562  0.25828744     0.81000
N405        N  0.54142954  0.49709338  0.21924603    -0.77300
C406        C  0.49494591  0.49980608  0.21313520     0.83400
N407        N  0.46658894  0.48337903  0.24680866    -0.77300
C408        C  0.48350357  0.46472491  0.28667211     0.83500
N409        N  0.53002632  0.46054951  0.29200666    -0.79000
C410        C  0.49101991  0.74684202  0.93711828     0.81000
N411        N  0.50729861  0.78498211  0.95923018    -0.77300
C412        C  0.51335634  0.78414129  0.00588198     0.83400
N413        N  0.50457667  0.74418032  0.02978757    -0.77300
C414        C  0.48964906  0.70545932  0.00714056     0.83500
N415        N  0.48218170  0.70750008  0.96090469    -0.79000
O416        O  0.34738841  0.50767234  0.07467049    -0.77800
C417        C  0.47369266  0.52398310  0.17333525     0.83300
O418        O  0.30490388  0.61115056  0.19479399    -0.78900
O419        O  0.46874566  0.66036160  0.17849838    -0.80300
O420        O  0.44104227  0.64014363  0.01483587    -0.80100
O421        O  0.34394626  0.56282709  0.02104616    -0.78800
Zn422      Zn  0.38028826  0.54294660  0.12715772     1.55700
O423        O  0.48679691  0.65797293  0.07444467    -0.80200
Cd424      Cd  0.38392238  0.61448278  0.04952591     1.59700
Cd425      Cd  0.35405924  0.65184397  0.15553546     1.59600
O426        O  0.33995935  0.66675953  0.04078542    -0.80200
O427        O  0.39315506  0.60685603  0.11662449    -1.90700
Cd428      Cd  0.46051496  0.61579393  0.12645724     1.59900
O429        O  0.31862926  0.69746242  0.10847726    -0.80100
O430        O  0.49444164  0.55796467  0.15400348    -0.78800
C431        C  0.30390103  0.56672641  0.19604227     0.83800
C432        C  0.33047250  0.52412442  0.03719656     0.83400
O433        O  0.43183583  0.51376526  0.16359908    -0.77700
C434        C  0.47292487  0.66476117  0.03305758     0.84200
O435        O  0.33154181  0.54268146  0.17223446    -0.77800
C436        C  0.31723248  0.69604305  0.06393981     0.84400
C437        C  0.44506044  0.68821602  0.20245491     0.84700
O438        O  0.40063331  0.69056684  0.19946463    -0.80200
C439        C  0.24935193  0.55175787  0.49495610     0.81000
N440        N  0.28250167  0.52794649  0.47083876    -0.77300
C441        C  0.28021958  0.48105201  0.46863489     0.83400
N442        N  0.24425791  0.45904113  0.48941477    -0.77300
C443        C  0.21090939  0.48211171  0.51312418     0.83500
N444        N  0.21404883  0.52882885  0.51665759    -0.79000
O445        O  0.51122565  0.92148444  0.15689924    -0.77800
C446        C  0.53369261  0.82422673  0.03027093     0.83300
O447        O  0.61327170  0.80230827  0.20023825    -0.78900
O448        O  0.66716663  0.82329714  0.03943689    -0.80300
O449        O  0.65148659  0.98484464  0.07178082    -0.80100
O450        O  0.56396296  0.97740911  0.16329066    -0.78800
Zn451      Zn  0.54735786  0.86976443  0.12467550     1.55700
O452        O  0.66523045  0.92697163  0.02253366    -0.80200
Cd453      Cd  0.61793965  0.95013292  0.12526319     1.59700
Cd454      Cd  0.65550305  0.84415609  0.15470278     1.59600
O455        O  0.66508971  0.95837028  0.17444553    -0.80200
O456        O  0.61143644  0.88303657  0.11474441    -1.90700
Cd457      Cd  0.62240166  0.87510227  0.04740850     1.59900
O458        O  0.69753318  0.89144576  0.19509357    -0.80100
O459        O  0.56640332  0.84717260  0.01117297    -0.78800
C460        C  0.56884271  0.79935818  0.19963792     0.83800
C461        C  0.52569409  0.95907481  0.17522447     0.83400
O462        O  0.52146623  0.83169740  0.07204347    -0.77700
C463        C  0.67455708  0.96698134  0.03844840     0.84200
O464        O  0.54466637  0.82343706  0.17234613    -0.77800
C465        C  0.69349427  0.93566383  0.19861057     0.84400
C466        C  0.69404852  0.79838737  0.06330137     0.84700
O467        O  0.69563168  0.80091591  0.10792101    -0.80200
C468        C  0.74205095  0.69916016  0.99740123     0.81000
N469        N  0.72059631  0.72309482  0.03215082    -0.77300
C470        C  0.72534503  0.76974121  0.03484228     0.83400
N471        N  0.75020086  0.79191411  0.00160950    -0.77300
C472        C  0.77139958  0.76889255  0.96640853     0.83500
N473        N  0.76781482  0.72197181  0.96466939    -0.79000
O474        O  0.90614251  0.18233645  0.73643030    -0.77800
C475        C  0.78573814  0.07590504  0.72218508     0.83300
O476        O  0.95332164  0.05803628  0.64326856    -0.78900
O477        O  0.79135400  0.08148877  0.58372795    -0.80300
O478        O  0.81751427  0.23815919  0.59563374    -0.80100
O479        O  0.91252173  0.23431335  0.67935501    -0.78800
Zn480      Zn  0.87665485  0.12699433  0.70471867     1.55700
O481        O  0.76583931  0.18098799  0.59395875    -0.80200
Cd482      Cd  0.87337456  0.20484465  0.62775689     1.59700
Cd483      Cd  0.90680160  0.09770956  0.59797788     1.59600
O484        O  0.91977300  0.21200907  0.57742182    -0.80200
O485        O  0.86543613  0.13788390  0.63980220    -1.90700
Cd486      Cd  0.79775252  0.12905757  0.63217927     1.59900
O487        O  0.94570226  0.14385841  0.55231968    -0.80100
O488        O  0.76568277  0.09392507  0.68701361    -0.78800
C489        C  0.95380466  0.05736147  0.68802863     0.83800
C490        C  0.92431620  0.21871724  0.71891947     0.83400
O491        O  0.82611557  0.08866290  0.73466794    -0.77700
C492        C  0.78040144  0.22012169  0.57967723     0.84200
O493        O  0.92629630  0.08218666  0.71117853    -0.77800
C494        C  0.94553368  0.18844987  0.55120214     0.84400
C495        C  0.81472002  0.05505403  0.55810212     0.84700
O496        O  0.85941583  0.05422260  0.55892078    -0.80200
C497        C  0.70052538  0.98743347  0.76080504     0.81000
N498        N  0.72852086  0.95485871  0.78028358    -0.77300
C499        C  0.77492016  0.96206010  0.78197967     0.83400
N500        N  0.79251801  0.00273058  0.76540868    -0.77300
C501        C  0.76471024  0.03524094  0.74550918     0.83500
N502        N  0.71856850  0.02708963  0.74293342    -0.79000
O503        O  0.85138631  0.98056384  0.93628607    -0.77800
C504        C  0.97268296  0.96450594  0.82942396     0.83300
O505        O  0.80445412  0.88793106  0.81052667    -0.78900
O506        O  0.96326062  0.82592127  0.83041302    -0.80300
O507        O  0.93560255  0.83682988  0.99058171    -0.80100
O508        O  0.84247341  0.92316833  0.98737524    -0.78800
Zn509      Zn  0.88153300  0.94790606  0.88107566     1.55700
O510        O  0.98738465  0.83520250  0.93302080    -0.80200
Cd511      Cd  0.87999771  0.86990067  0.95744528     1.59700
Cd512      Cd  0.84884909  0.84128536  0.84931437     1.59600
O513        O  0.83135146  0.82098913  0.96327646    -0.80200
O514        O  0.89026980  0.88235645  0.89046323    -1.90700
Cd515      Cd  0.95753388  0.87336493  0.88004576     1.59900
O516        O  0.80725060  0.79650381  0.89406101    -0.80100
O517        O  0.99158535  0.92833868  0.84655539    -0.78800
C518        C  0.80532400  0.93247227  0.81059130     0.83800
C519        C  0.83252308  0.96354342  0.97263368     0.83400
O520        O  0.93266722  0.97767419  0.84272286    -0.77700
C521        C  0.97284066  0.82119823  0.97239857     0.84200
O522        O  0.83300086  0.95472371  0.83595766    -0.77800
C523        C  0.80552139  0.79560566  0.93874611     0.84400
C524        C  0.93928042  0.80117334  0.80349169     0.84700
O525        O  0.89461189  0.80226090  0.80385840    -0.80200
O526        O  0.09964174  0.67685429  0.76623388    -0.77800
C527        C  0.22652153  0.57635844  0.78344694     0.83300
O528        O  0.05648518  0.55240379  0.85824413    -0.78900
O529        O  0.21510692  0.57181578  0.92243860    -0.80300
O530        O  0.18894432  0.73359239  0.90693301    -0.80100
O531        O  0.09602368  0.73015273  0.82198377    -0.78800
Zn532      Zn  0.13377050  0.62362305  0.79835943     1.55700
O533        O  0.23894151  0.67512291  0.91262958    -0.80200
Cd534      Cd  0.13388210  0.69966074  0.87425851     1.59700
Cd535      Cd  0.10153401  0.59085537  0.90450669     1.59600
O536        O  0.08672117  0.70499204  0.92397986    -0.80200
O537        O  0.14267432  0.63253847  0.86380565    -1.90700
Cd538      Cd  0.20903978  0.62244216  0.87560756     1.59900
O539        O  0.06348035  0.63620940  0.95054614    -0.80100
O540        O  0.24384118  0.59363962  0.82023031    -0.78800
C541        C  0.05914236  0.55169164  0.81369843     0.83800
C542        C  0.08232250  0.71380986  0.78332235     0.83400
O543        O  0.18636891  0.58770724  0.76893424    -0.77700
C544        C  0.22524463  0.71525446  0.92439234     0.84200
O545        O  0.08732500  0.57695273  0.79206814    -0.77800
C546        C  0.06247644  0.68075471  0.95108540     0.84400
C547        C  0.19065954  0.54388239  0.94560970     0.84700
O548        O  0.14610602  0.54405586  0.94315402    -0.80200
C549        C  0.98604667  0.73749619  0.70123802     0.81000
N550        N  0.95567010  0.76119053  0.72867771    -0.77300
C551        C  0.96749264  0.77088495  0.77323960     0.83400
N552        N  0.01010478  0.75788775  0.78913371    -0.77300
C553        C  0.04043159  0.73428316  0.76197467     0.83500
N554        N  0.02790098  0.72371895  0.71800018    -0.79000
C555        C  0.96087819  0.50109326  0.74843061     0.81000
N556        N  0.98466968  0.52152435  0.78378570    -0.77300
C557        C  0.03159891  0.52156181  0.78306900     0.83400
N558        N  0.05380751  0.50201015  0.74639115    -0.77300
C559        C  0.03034450  0.48202457  0.71073710     0.83500
N560        N  0.98351460  0.48109133  0.71216773    -0.79000
C561        C  0.32111575  0.49806291  0.74820725     0.81000
N562        N  0.29824271  0.53595935  0.76370765    -0.77300
C563        C  0.25145753  0.53805968  0.76086817     0.83400
N564        N  0.22763383  0.50080084  0.74428025    -0.77300
C565        C  0.25061472  0.46224932  0.72943202     0.83500
N566        N  0.29752986  0.46149006  0.73061347    -0.79000
C567        C  0.76097947  0.95169871  0.50584023     0.81000
N568        N  0.72036926  0.96936780  0.48988115    -0.77300
C569        C  0.71142605  0.01508225  0.49403408     0.83400
N570        N  0.74412139  0.04286283  0.51355009    -0.77300
C571        C  0.78565299  0.02552641  0.52843256     0.83500
N572        N  0.79363452  0.97949944  0.52523062    -0.79000
C573        C  0.99798734  0.25037328  0.45086250     0.81000
N574        N  0.97608828  0.21628088  0.47538716    -0.77300
C575        C  0.97669392  0.21731274  0.52249795     0.83400
N576        N  0.99808199  0.25324036  0.54412533    -0.77300
C577        C  0.01946785  0.28772575  0.52023935     0.83500
N578        N  0.02002155  0.28574898  0.47322609    -0.79000
C579        C  0.00536919  0.25288163  0.81126493     0.81000
N580        N  0.04187693  0.26950487  0.78708877    -0.77300
C581        C  0.04038592  0.27015522  0.74030997     0.83400
N582        N  0.00119067  0.25564022  0.71801365    -0.77300
C583        C  0.96398169  0.23996526  0.74273350     0.83500
N584        N  0.96677762  0.23775063  0.78941936    -0.79000
C585        C  0.51313961  0.73832626  0.29871613     0.81000
N586        N  0.47782096  0.71632431  0.27631147    -0.77300
C587        C  0.47351731  0.72040859  0.22966212     0.83400
N588        N  0.50566793  0.74512543  0.20596594    -0.77300
C589        C  0.54150581  0.76655722  0.22761653     0.83500
N590        N  0.54498812  0.76365629  0.27450803    -0.79000
C591        C  0.78970878  0.99703491  0.25709576     0.81000
N592        N  0.76665490  0.96349717  0.23327047    -0.77300
C593        C  0.71982345  0.96459861  0.23132089     0.83400
N594        N  0.69688826  0.99984439  0.25256134    -0.77300
C595        C  0.71968395  0.03373863  0.27596616     0.83500
N596        N  0.76644662  0.03188064  0.27870291    -0.79000
C597        C  0.26038368  0.80003339  0.01447159     0.81000
N598        N  0.28316410  0.77236776  0.04517011    -0.77300
C599        C  0.28838605  0.72683580  0.03543405     0.83400
N600        N  0.27180359  0.70990704  0.99464642    -0.77300
C601        C  0.24871845  0.73723105  0.96412446     0.83500
N602        N  0.24260662  0.78249673  0.97443599    -0.79000
C603        C  0.74347026  0.30578579  0.49046866     0.81000
N604        N  0.76119375  0.28757065  0.53028310    -0.77300
C605        C  0.75708796  0.24169513  0.53916381     0.83400
N606        N  0.73598105  0.21424931  0.50717189    -0.77300
C607        C  0.71951058  0.23173353  0.46633372     0.83500
N608        N  0.72261286  0.27797888  0.45841344    -0.79000
C609        C  0.19911811  0.51902202  0.25495299     0.81000
N610        N  0.21534718  0.47652245  0.26713540    -0.77300
C611        C  0.25960669  0.46442502  0.25740409     0.83400
N612        N  0.28757697  0.49568749  0.23657827    -0.77300
C613        C  0.27234026  0.53867653  0.22487167     0.83500
N614        N  0.22745328  0.55033652  0.23347179    -0.79000
C615        C  0.24114167  0.43825929  0.00019190     0.81000
N616        N  0.28071718  0.45618994  0.01887035    -0.77300
C617        C  0.28978242  0.50208686  0.01494098     0.83400
N618        N  0.25849211  0.52963685  0.99316032    -0.77300
C619        C  0.21812169  0.51262791  0.97566530     0.83500
N620        N  0.20979657  0.46641200  0.97850792    -0.79000
C621        C  0.43008591  0.99230350  0.25400821     0.81000
N622        N  0.45331661  0.97685544  0.21617931    -0.77300
C623        C  0.50017520  0.97894931  0.21495502     0.83400
N624        N  0.52368119  0.99500114  0.25293605    -0.77300
C625        C  0.50029353  0.00962721  0.29150202     0.83500
N626        N  0.45335971  0.00912102  0.29124821    -0.79000
C627        C  0.51441599  0.25213570  0.19490218     0.81000
N628        N  0.54511227  0.22958598  0.22312339    -0.77300
C629        C  0.53453985  0.22368098  0.26872039     0.83400
N630        N  0.49295071  0.23902258  0.28474886    -0.77300
C631        C  0.46238869  0.26135954  0.25689313     0.83500
N632        N  0.47353797  0.26834616  0.21188274    -0.79000
C633        C  0.24461645  0.18814102  0.49219683     0.81000
N634        N  0.25809662  0.21049245  0.45326924    -0.77300
C635        C  0.25700759  0.25713284  0.45191109     0.83400
N636        N  0.24432635  0.28120620  0.49050132    -0.77300
C637        C  0.23176016  0.25845107  0.52992913     0.83500
N638        N  0.23110137  0.21180359  0.53029319    -0.79000
C639        C  0.01840535  0.73580746  0.05793203     0.81000
N640        N  0.99799385  0.77450168  0.04020162    -0.77300
C641        C  0.99670570  0.78112922  0.99366575     0.83400
N642        N  0.01495668  0.74823849  0.96543467    -0.77300
C643        C  0.03379728  0.70857655  0.98270902     0.83500
N644        N  0.03637071  0.70287774  0.02934075    -0.79000
C645        C  0.76109497  0.05898655  0.01978628     0.81000
N646        N  0.72091445  0.03705688  0.02983353    -0.77300
C647        C  0.71643957  0.99120131  0.02182133     0.83400
N648        N  0.75356090  0.96704052  0.00506466    -0.77300
C649        C  0.79433943  0.98908557  0.99517438     0.83500
N650        N  0.79752719  0.03539741  0.00172400    -0.79000
C651        C  0.05898398  0.00303271  0.74093385     0.81000
N652        N  0.03112950  0.02460471  0.70918103    -0.77300
C653        C  0.98468733  0.02771768  0.71697755     0.83400
N654        N  0.96708461  0.01034039  0.75743864    -0.77300
C655        C  0.99445470  0.98842098  0.78910766     0.83500
N656        N  0.04049663  0.98450679  0.78030561    -0.79000
C657        C  0.60782053  0.47124697  0.26263383    -0.12500
C658        C  0.64944032  0.47078775  0.26260327    -0.14100
C659        C  0.74337664  0.35506596  0.48471046    -0.12500
C660        C  0.74292283  0.39675541  0.48436278    -0.14100
C661        C  0.91168885  0.50017058  0.74941349    -0.12500
C662        C  0.87024297  0.49885262  0.74920281    -0.14100
C663        C  0.37028074  0.49667789  0.75062635    -0.12500
C664        C  0.41175090  0.49608835  0.75172913    -0.14100
C665        C  0.76570802  0.86169544  0.50662162    -0.12500
C666        C  0.76677259  0.90302166  0.50633558    -0.14100
C667        C  0.51550349  0.73517531  0.38999721    -0.12500
C668        C  0.51577702  0.73569309  0.34824626    -0.14100
C669        C  0.48075011  0.74497797  0.84710982    -0.12500
C670        C  0.48372183  0.74730735  0.88843056    -0.14100
C671        C  0.76359443  0.10765770  0.02558336    -0.12500
C672        C  0.76268049  0.14901275  0.02607778    -0.14100
C673        C  0.10864407  0.00282051  0.73526063    -0.12500
C674        C  0.15057759  0.00303009  0.73495593    -0.14100
C675        C  0.02437622  0.73204649  0.14867869    -0.12500
C676        C  0.02356157  0.73157488  0.10702208    -0.14100
C677        C  0.25151808  0.60133299  0.49774090    -0.12500
C678        C  0.25182947  0.64302715  0.49962810    -0.14100
C679        C  0.24600414  0.13963611  0.49365303    -0.12500
C680        C  0.24719969  0.09864548  0.49573710    -0.14100
C681        C  0.97600801  0.73018766  0.61130586    -0.12500
C682        C  0.97692539  0.73141949  0.65295282    -0.14100
C683        C  0.99967160  0.24942509  0.35930626    -0.12500
C684        C  0.99832232  0.24902855  0.40110358    -0.14100
C685        C  0.00768400  0.25038598  0.90109661    -0.12500
C686        C  0.00747635  0.25124974  0.85991267    -0.14100
C687        C  0.33929061  0.99308729  0.25477057    -0.12500
C688        C  0.38079419  0.99211627  0.25417106    -0.14100
C689        C  0.25817573  0.84852004  0.02213681    -0.12500
C690        C  0.25694183  0.88988613  0.02346257    -0.14100
C691        C  0.23372531  0.34713031  0.99841222    -0.12500
C692        C  0.23501373  0.38887831  0.99961297    -0.14100
C693        C  0.88021502  0.99569993  0.25994833    -0.12500
C694        C  0.83879975  0.99596733  0.25905680    -0.14100
C695        C  0.60985035  0.98214240  0.76287919    -0.12500
C696        C  0.65143194  0.98213202  0.76229688    -0.14100
C697        C  0.48044640  0.26149853  0.65059771    -0.12500
C698        C  0.48005311  0.26276726  0.60878532    -0.14100
C699        C  0.52215675  0.25526954  0.14606537    -0.12500
C700        C  0.52118553  0.25655452  0.10439495    -0.14100
C701        C  0.10897377  0.52818592  0.26301739    -0.12500
C702        C  0.15067656  0.52810952  0.26101026    -0.14100
C703        C  0.73793413  0.60759721  0.99704590    -0.12500
C704        C  0.73851335  0.64942445  0.99632296    -0.14100
loop_ 
_geom_bond_atom_site_label_1 
_geom_bond_atom_site_label_2 
_geom_bond_distance 
_geom_bond_site_symmetry_2 
_ccdc_geom_bond_type 
O1           C17   1.271       .  A
O1           Zn7   2.006       .  S
C2           O18   1.277       .  A
C2           O15   1.272       .  A
C2          C301   1.469       .  S
O3           C16   1.289       .  A
O3          Cd10   2.176       .  S
O4           C22   1.262       .  A
O4          Cd13   1.989       .  S
O5           C19   1.274       .  A
O5           Cd9   2.072       .  S
O6           C17   1.278       .  A
O6           Cd9   2.092       .  S
Zn7          O18   2.036       .  S
Zn7          O20   1.915       .  S
Zn7          O12   1.918       .  S
O8           C19   1.275       .  A
O8          Cd13   2.072       .  S
Cd9          O11   1.968       .  S
Cd9          O12   1.974       .  S
Cd10         O14   2.173       .  S
Cd10         O23   2.170       .  S
Cd10         O12   2.056       .  S
O11          C21   1.258       .  A
O12         Cd13   1.959       .  S
Cd13         O15   2.051       .  S
O14          C21   1.289       .  A
C16          O20   1.260       .  A
C16         C297   1.476       .  S
C17         C289   1.479       .  S
C19         C315   1.473       .  S
C21         C307   1.471       .  S
C22          O23   1.286       .  A
C22         C319   1.476       .  S
O24          C40   1.274       .  A
O24         Zn30   1.998       .  S
C25          O41   1.277       .  A
C25          O38   1.270       .  A
C25         C271   1.473       .  S
O26          C39   1.283       .  A
O26         Cd33   2.151       .  S
O27          C45   1.263       .  A
O27         Cd36   1.986       .  S
O28          C42   1.272       .  A
O28         Cd32   2.060       .  S
O29          C40   1.276       .  A
O29         Cd32   2.072       .  S
Zn30         O41   2.040       .  S
Zn30         O43   1.919       .  S
Zn30         O35   1.903       .  S
O31          C42   1.275       .  A
O31         Cd36   2.063       .  S
Cd32         O34   1.982       .  S
Cd32         O35   1.964       .  S
Cd33         O37   2.156       .  S
Cd33         O46   2.142       .  S
Cd33         O35   2.051       .  S
O34          C44   1.261       .  A
O35         Cd36   1.953       .  S
Cd36         O38   2.038       .  S
O37          C44   1.285       .  A
C39          O43   1.261       .  A
C39          C78   1.469       .  S
C40         C325   1.471       .  S
C42         C303   1.468       .  S
C44         C321   1.467       .  S
C45          O46   1.283       .  A
C45         C255   1.465       .  S
O47          C63   1.276       .  A
O47         Zn53   2.013       .  S
C48          O64   1.277       .  A
C48          O61   1.272       .  A
C48          C72   1.482       .  S
O49          C62   1.285       .  A
O49         Cd56   2.158       .  S
O50          C68   1.261       .  A
O50         Cd59   1.990       .  S
O51          C65   1.270       .  A
O51         Cd55   2.052       .  S
O52          C63   1.275       .  A
O52         Cd55   2.080       .  S
Zn53         O64   2.062       .  S
Zn53         O66   1.920       .  S
Zn53         O58   1.908       .  S
O54          C65   1.276       .  A
O54         Cd59   2.065       .  S
Cd55         O57   1.995       .  S
Cd55         O58   1.981       .  S
Cd56         O60   2.174       .  S
Cd56         O69   2.159       .  S
Cd56         O58   2.053       .  S
O57          C67   1.262       .  A
O58         Cd59   1.971       .  S
Cd59         O61   2.056       .  S
O60          C67   1.289       .  A
C62          O66   1.262       .  A
C62         C327   1.473       .  S
C63          C80   1.472       .  S
C65         C172   1.463       .  S
C67         C180   1.476       .  S
C68          O69   1.287       .  A
C68         C285   1.473       .  S
C70          N71   1.364   1_556  A
C70          N75   1.369       .  A
C70         C703   1.441       .  S
N71          C72   1.356       .  A
C72          N73   1.359   1_554  A
N73          C74   1.363       .  A
C74         C103   1.487       .  S
C74          N75   1.362       .  A
C76          N77   1.366       .  A
C76          N81   1.364       .  A
C76         C701   1.434       .  S
N77          C78   1.360   1_455  A
C78          N79   1.356       .  A
N79          C80   1.352       .  A
C80          N81   1.355   1_655  A
O82          C98   1.278       .  A
O82         Zn88   2.052       .  S
C83          O99   1.282       .  A
C83          O96   1.272       .  A
C83         C283   1.479       .  S
O84          C97   1.289       .  A
O84         Cd91   2.174       .  S
O85         C103   1.263       .  A
O85         Cd94   2.005       .  S
O86         C100   1.274       .  A
O86         Cd90   2.072       .  S
O87          C98   1.278       .  A
O87         Cd90   2.087       .  S
Zn88         O99   2.072       .  S
Zn88        O101   1.918       .  S
Zn88         O93   1.936       .  S
O89         C100   1.275       .  A
O89         Cd94   2.072       .  S
Cd90         O92   1.980       .  S
Cd90         O93   1.978       .  S
Cd91         O95   2.170       .  S
Cd91        O104   2.185       .  S
Cd91         O93   2.056       .  S
O92         C102   1.260       .  A
O93         Cd94   1.974       .  S
Cd94         O96   2.044       .  S
O95         C102   1.288       .  A
C97         O101   1.259       .  A
C97         C132   1.476       .  S
C98         C138   1.491       .  S
C100        C313   1.474       .  S
C102        C309   1.473       .  S
C103        O104   1.289       .  A
O105        C121   1.274       .  A
O105       Zn111   2.023       .  S
C106        O122   1.277       .  A
C106        O119   1.274       .  A
C106        C142   1.482       .  S
O107        C120   1.293       .  A
O107       Cd114   2.205       .  S
O108        C126   1.262       .  A
O108       Cd117   2.000       .  S
O109        C123   1.275       .  A
O109       Cd113   2.079       .  S
O110        C121   1.278       .  A
O110       Cd113   2.103       .  S
Zn111       O122   2.049       .  S
Zn111       O124   1.916       .  S
Zn111       O116   1.939       .  S
O112        C123   1.278       .  A
O112       Cd117   2.087       .  S
Cd113       O115   1.991       .  S
Cd113       O116   1.993       .  S
Cd114       O118   2.218       .  S
Cd114       O127   2.210       .  S
Cd114       O116   2.064       .  S
O115        C125   1.261       .  A
O116       Cd117   1.988       .  S
Cd117       O119   2.078       .  S
O118        C125   1.295       .  A
C120        O124   1.259       .  A
C120        C136   1.490       .  S
C121        C130   1.484       .  S
C123        C160   1.477       .  S
C125        C154   1.492       .  S
C126        O127   1.294       .  A
C126        C279   1.492       .  S
C128        N129   1.361       .  A
C128        N133   1.361       .  A
C128        C700   1.429       .  S
N129        C130   1.355   1_554  A
C130        N131   1.362       .  A
N131        C132   1.366       .  A
C132        N133   1.356   1_556  A
C134        N135   1.366       .  A
C134        N139   1.360       .  A
C134        C697   1.435       .  S
N135        C136   1.360       .  A
C136        N137   1.371       .  A
N137        C138   1.363       .  A
C138        N139   1.355       .  A
C140        N141   1.359   1_565  A
C140        N145   1.355       .  A
C140        C695   1.425       .  S
N141        C142   1.357       .  A
C142        N143   1.368   1_545  A
N143        C144   1.368       .  A
C144        C206   1.479       .  S
C144        N145   1.353       .  A
C146        N147   1.355   1_565  A
C146        N151   1.354       .  A
C146        C693   1.418       .  S
N147        C148   1.353       .  A
C148        C198   1.471   1_655  S
C148        N149   1.364   1_645  A
N149        C150   1.364   1_455  A
C150        C244   1.469   1_655  S
C150        N151   1.353       .  A
C152        N153   1.369       .  A
C152        N157   1.366   1_556  A
C152        C691   1.439       .  S
N153        C154   1.360       .  A
C154        N155   1.365       .  A
N155        C156   1.363   1_556  A
C156        C203   1.485       .  S
C156        N157   1.357       .  A
C158        N159   1.357   1_554  A
C158        N163   1.354       .  A
C158        C690   1.420       .  S
N159        C160   1.355   1_565  A
C160        N161   1.366   1_556  A
N161        C162   1.367       .  A
C162        C183   1.473       .  S
C162        N163   1.352   1_545  A
C164        N165   1.363       .  A
C164        N169   1.364   1_565  A
C164        C687   1.422       .  S
N165        C166   1.353       .  A
C166        C243   1.478       .  S
C166        N167   1.362       .  A
N167        C168   1.363   1_565  A
C168        C197   1.479       .  S
C168        N169   1.355       .  A
C170        N171   1.350   1_455  A
C170        N175   1.351       .  A
C170        C685   1.404       .  S
N171        C172   1.349   1_556  A
C172        N173   1.365   1_655  A
N173        C174   1.365       .  A
C174        C200   1.465       .  S
C174        N175   1.350   1_554  A
C176        N177   1.366       .  A
C176        N181   1.366   1_455  A
C176        C683   1.435   1_455  S
N177        C178   1.358       .  A
C178        C202   1.474       .  S
C178        N179   1.359       .  A
N179        C180   1.359   1_455  A
C180        N181   1.357       .  A
O182        C198   1.273       .  A
O182       Zn188   2.019       .  S
C183        O199   1.278       .  A
C183        O196   1.270       .  A
O184        C197   1.291       .  A
O184       Cd191   2.192       .  S
O185        C203   1.261       .  A
O185       Cd194   1.991       .  S
O186        C200   1.269       .  A
O186       Cd190   2.045       .  S
O187        C198   1.274       .  A
O187       Cd190   2.066       .  S
Zn188       O199   2.036       .  S
Zn188       O201   1.898       .  S
Zn188       O193   1.911       .  S
O189        C200   1.277       .  A
O189       Cd194   2.066       .  S
Cd190       O192   1.980       .  S
Cd190       O193   1.965       .  S
Cd191       O195   2.182       .  S
Cd191       O204   2.201       .  S
Cd191       O193   2.043       .  S
O192        C202   1.261       .  A
O193       Cd194   1.971       .  S
Cd194       O196   2.052       .  S
O195        C202   1.291       .  A
C197        O201   1.257       .  A
C203        O204   1.294       .  A
O205        C221   1.274       .  A
O205       Zn211   2.020       .  S
C206        O222   1.277       .  A
C206        O219   1.272       .  A
O207        C220   1.289       .  A
O207       Cd214   2.171       .  S
O208        C226   1.261       .  A
O208       Cd217   1.997       .  S
O209        C223   1.271       .  A
O209       Cd213   2.052       .  S
O210        C221   1.276       .  A
O210       Cd213   2.087       .  S
Zn211       O222   2.039       .  S
Zn211       O224   1.901       .  S
Zn211       O216   1.911       .  S
O212        C223   1.278       .  A
O212       Cd217   2.073       .  S
Cd213       O215   1.995       .  S
Cd213       O216   1.977       .  S
Cd214       O218   2.178       .  S
Cd214       O227   2.198       .  S
Cd214       O216   2.047       .  S
O215        C225   1.262       .  A
O216       Cd217   1.981       .  S
Cd217       O219   2.069       .  S
O218        C225   1.290       .  A
C220        O224   1.258       .  A
C220        C291   1.473       .  S
C221        C295   1.480       .  S
C223        C261   1.467       .  S
C225        C265   1.476       .  S
C226        O227   1.292       .  A
C226        C277   1.488       .  S
O228        C244   1.271       .  A
O228       Zn234   2.010       .  S
C229        O245   1.277       .  A
C229        O242   1.271       .  A
C229        C259   1.465       .  S
O230        C243   1.287       .  A
O230       Cd237   2.176       .  S
O231        C249   1.261       .  A
O231       Cd240   1.984       .  S
O232        C246   1.272       .  A
O232       Cd236   2.046       .  S
O233        C244   1.273       .  A
O233       Cd236   2.064       .  S
Zn234       O245   2.015       .  S
Zn234       O247   1.918       .  S
Zn234       O239   1.913       .  S
O235        C246   1.276       .  A
O235       Cd240   2.095       .  S
Cd236       O238   1.983       .  S
Cd236       O239   1.957       .  S
Cd237       O241   2.172       .  S
Cd237       O250   2.177       .  S
Cd237       O239   2.054       .  S
O238        C248   1.263       .  A
O239       Cd240   1.983       .  S
Cd240       O242   2.052       .  S
O241        C248   1.288       .  A
C243        O247   1.258       .  A
C246        C253   1.473       .  S
C248        C273   1.477       .  S
C249        O250   1.290       .  A
C249        C267   1.474       .  S
C251        N252   1.364   1_655  A
C251        N256   1.364       .  A
C251        C681   1.428       .  S
N252        C253   1.355       .  A
C253        N254   1.352   1_455  A
N254        C255   1.355       .  A
C255        N256   1.357       .  A
C257        N258   1.349       .  A
C257        N262   1.350       .  A
C257        C680   1.404       .  S
N258        C259   1.349   1_545  A
C259        N260   1.365       .  A
N260        C261   1.367       .  A
C261        N262   1.351   1_565  A
C263        N264   1.367       .  A
C263        N268   1.365       .  A
C263        C678   1.437       .  S
N264        C265   1.359       .  A
C265        N266   1.358       .  A
N266        C267   1.359       .  A
C267        N268   1.357       .  A
C269        N270   1.361   1_455  A
C269        N274   1.368       .  A
C269        C675   1.426       .  S
N270        C271   1.351       .  A
C271        N272   1.354       .  A
N272        C273   1.360   1_655  A
C273        N274   1.359       .  A
C275        N276   1.367   1_545  A
C275        N280   1.369       .  A
C275        C674   1.443       .  S
N276        C277   1.359       .  A
C277        N278   1.364   1_565  A
N278        C279   1.364       .  A
C279        N280   1.360       .  A
C281        N282   1.361   1_554  A
C281        N286   1.360       .  A
C281        C672   1.418       .  S
N282        C283   1.352       .  A
C283        N284   1.360   1_556  A
N284        C285   1.364       .  A
C285        N286   1.354       .  A
C287        N288   1.358       .  A
C287        N292   1.360       .  A
C287        C669   1.418       .  S
N288        C289   1.351       .  A
C289        N290   1.360       .  A
N290        C291   1.367       .  A
C291        N292   1.354       .  A
C293        N294   1.362       .  A
C293        N298   1.365       .  A
C293        C667   1.431       .  S
N294        C295   1.355       .  A
C295        N296   1.358       .  A
N296        C297   1.363       .  A
C297        N298   1.358       .  A
C299        N300   1.358       .  A
C299        N304   1.354       .  A
C299        C665   1.417       .  S
N300        C301   1.355       .  A
C301        N302   1.363       .  A
N302        C303   1.361       .  A
C303        N304   1.352       .  A
C305        N306   1.362       .  A
C305        N310   1.363       .  A
C305        C664   1.421       .  S
N306        C307   1.353       .  A
C307        N308   1.360       .  A
N308        C309   1.359       .  A
C309        N310   1.354       .  A
C311        N312   1.355       .  A
C311        N316   1.355       .  A
C311        C662   1.420       .  S
N312        C313   1.354       .  A
C313        N314   1.366       .  A
N314        C315   1.366       .  A
C315        N316   1.353       .  A
C317        N318   1.370       .  A
C317        N322   1.366       .  A
C317        C660   1.434       .  S
N318        C319   1.359       .  A
C319        N320   1.354       .  A
N320        C321   1.353       .  A
C321        N322   1.356       .  A
C323        N324   1.360       .  A
C323        N328   1.366       .  A
C323        C658   1.426       .  S
N324        C325   1.352       .  A
C325        N326   1.353       .  A
N326        C327   1.359       .  A
C327        N328   1.359       .  A
O329        C345   1.278       .  A
O329       Zn335   2.037       .  S
C330        O346   1.272       .  A
C330        O343   1.275       .  A
C330        C565   1.473       .  S
O331        C344   1.287       .  A
O331       Cd338   2.166       .  S
O332        C350   1.261       .  A
O332       Cd341   1.981       .  S
O333        C347   1.275       .  A
O333       Cd337   2.059       .  S
O334        C345   1.268       .  A
O334       Cd337   2.040       .  S
Zn335       O346   2.014       .  S
Zn335       O348   1.900       .  S
Zn335       O340   1.909       .  S
O336        C347   1.270       .  A
O336       Cd341   2.051       .  S
Cd337       O339   1.980       .  S
Cd337       O340   1.968       .  S
Cd338       O342   2.183       .  S
Cd338       O351   2.173       .  S
Cd338       O340   2.051       .  S
O339        C349   1.260       .  A
O340       Cd341   1.966       .  S
Cd341       O343   2.075       .  S
O342        C349   1.290       .  A
C344        O348   1.258       .  A
C344        C559   1.469       .  S
C345        C581   1.467       .  S
C347        C637   1.461       .  S
C349        C577   1.477       .  S
C350        O351   1.288       .  A
C350        C443   1.472       .  S
O352        C368   1.279       .  A
O352       Zn358   2.060       .  S
C353        O369   1.275       .  A
C353        O366   1.278       .  A
C353        C569   1.480       .  S
O354        C367   1.288       .  A
O354       Cd361   2.177       .  S
O355        C373   1.260       .  A
O355       Cd364   1.981       .  S
O356        C370   1.276       .  A
O356       Cd360   2.083       .  S
O357        C368   1.274       .  A
O357       Cd360   2.058       .  S
Zn358       O369   2.019       .  S
Zn358       O371   1.928       .  S
Zn358       O363   1.932       .  S
O359        C370   1.275       .  A
O359       Cd364   2.084       .  S
Cd360       O362   1.994       .  S
Cd360       O363   1.969       .  S
Cd361       O365   2.166       .  S
Cd361       O374   2.163       .  S
Cd361       O363   2.058       .  S
O362        C372   1.263       .  A
O363       Cd364   1.982       .  S
Cd364       O366   2.088       .  S
O365        C372   1.286       .  A
C367        O371   1.261       .  A
C367        C607   1.481       .  S
C368        C379   1.480       .  S
C370        C625   1.481       .  S
C372        C629   1.478       .  S
C373        O374   1.287       .  A
C373        C595   1.469       .  S
C375        N376   1.367       .  A
C375        N380   1.364       .  A
C375        C698   1.435       .  S
N376        C377   1.360       .  A
C377        C401   1.478       .  S
C377        N378   1.360       .  A
N378        C379   1.356       .  A
C379        N380   1.356       .  A
O381        C397   1.278       .  A
O381       Zn387   2.051       .  S
C382        O398   1.275       .  A
C382        O395   1.273       .  A
C382        C611   1.472       .  S
O383        C396   1.286       .  A
O383       Cd390   2.160       .  S
O384        C402   1.262       .  A
O384       Cd393   1.989       .  S
O385        C399   1.275       .  A
O385       Cd389   2.060       .  S
O386        C397   1.270       .  A
O386       Cd389   2.040       .  S
Zn387       O398   2.016       .  S
Zn387       O400   1.909       .  S
Zn387       O392   1.913       .  S
O388        C399   1.268       .  A
O388       Cd393   2.038       .  S
Cd389       O391   1.998       .  S
Cd389       O392   1.962       .  S
Cd390       O394   2.170       .  S
Cd390       O403   2.176       .  S
Cd390       O392   2.052       .  S
O391        C401   1.263       .  A
O392       Cd393   1.966       .  S
Cd393       O395   2.060       .  S
O394        C401   1.287       .  A
C396        O400   1.260       .  A
C396        C408   1.468       .  S
C397        C631   1.474       .  S
C399        C635   1.459       .  S
C402        O403   1.288       .  A
C402        C441   1.477       .  S
C404        N405   1.363       .  A
C404        N409   1.363       .  A
C404        C657   1.428       .  S
N405        C406   1.355       .  A
C406        C417   1.476       .  S
C406        N407   1.355       .  A
N407        C408   1.359       .  A
C408        N409   1.356       .  A
C410        N411   1.358       .  A
C410        N415   1.352       .  A
C410        C670   1.419       .  S
N411        C412   1.356   1_556  A
C412        C446   1.477       .  S
C412        N413   1.368       .  A
N413        C414   1.366       .  A
C414        C434   1.474       .  S
C414        N415   1.351   1_554  A
O416        C432   1.277       .  A
O416       Zn422   2.057       .  S
C417        O433   1.275       .  A
C417        O430   1.278       .  A
O418        C431   1.285       .  A
O418       Cd425   2.162       .  S
O419        C437   1.262       .  A
O419       Cd428   1.992       .  S
O420        C434   1.276       .  A
O420       Cd424   2.066       .  S
O421        C432   1.272       .  A
O421       Cd424   2.058       .  S
Zn422       O433   2.006       .  S
Zn422       O435   1.915       .  S
Zn422       O427   1.908       .  S
O423        C434   1.273       .  A
O423       Cd428   2.075       .  S
Cd424       O426   1.988       .  S
Cd424       O427   1.964       .  S
Cd425       O429   2.149       .  S
Cd425       O438   2.159       .  S
Cd425       O427   2.055       .  S
O426        C436   1.262       .  A
O427       Cd428   1.981       .  S
Cd428       O430   2.093       .  S
O429        C436   1.285       .  A
C431        O435   1.261       .  A
C431        C613   1.475       .  S
C432        C617   1.482       .  S
C436        C599   1.469       .  S
C437        O438   1.286       .  A
C437        C587   1.468       .  S
C439        N440   1.368       .  A
C439        N444   1.367       .  A
C439        C677   1.437       .  S
N440        C441   1.359       .  A
C441        N442   1.357       .  A
N442        C443   1.356       .  A
C443        N444   1.357       .  A
O445        C461   1.278       .  A
O445       Zn451   2.046       .  S
C446        O462   1.273       .  A
C446        O459   1.278       .  A
O447        C460   1.285       .  A
O447       Cd454   2.161       .  S
O448        C466   1.262       .  A
O448       Cd457   1.991       .  S
O449        C463   1.278       .  A
O449       Cd453   2.078       .  S
O450        C461   1.272       .  A
O450       Cd453   2.062       .  S
Zn451       O462   2.018       .  S
Zn451       O464   1.919       .  S
Zn451       O456   1.910       .  S
O452        C463   1.273       .  A
O452       Cd457   2.071       .  S
Cd453       O455   1.979       .  S
Cd453       O456   1.972       .  S
Cd454       O458   2.167       .  S
Cd454       O467   2.173       .  S
Cd454       O456   2.050       .  S
O455        C465   1.259       .  A
O456       Cd457   1.980       .  S
Cd457       O459   2.086       .  S
O458        C465   1.287       .  A
C460        O464   1.260       .  A
C460        C589   1.473       .  S
C461        C623   1.478       .  S
C463        C647   1.477       .  S
C465        C593   1.472       .  S
C466        O467   1.289       .  A
C466        C470   1.475       .  S
C468        N469   1.366   1_556  A
C468        N473   1.370       .  A
C468        C704   1.442       .  S
N469        C470   1.357       .  A
C470        N471   1.357       .  A
N471        C472   1.359   1_554  A
C472        C523   1.484       .  S
C472        N473   1.361       .  A
O474        C490   1.279       .  A
O474       Zn480   2.030       .  S
C475        O491   1.274       .  A
C475        O488   1.278       .  A
C475        C501   1.484       .  S
O476        C489   1.290       .  A
O476       Cd483   2.195       .  S
O477        C495   1.259       .  A
O477       Cd486   1.969       .  S
O478        C492   1.277       .  A
O478       Cd482   2.093       .  S
O479        C490   1.272       .  A
O479       Cd482   2.053       .  S
Zn480       O491   2.025       .  S
Zn480       O493   1.940       .  S
Zn480       O485   1.924       .  S
O481        C492   1.275       .  A
O481       Cd486   2.076       .  S
Cd482       O484   1.985       .  S
Cd482       O485   1.979       .  S
Cd483       O487   2.184       .  S
Cd483       O496   2.172       .  S
Cd483       O485   2.056       .  S
O484        C494   1.260       .  A
O485       Cd486   1.982       .  S
Cd486       O488   2.094       .  S
O487        C494   1.289       .  A
C489        O493   1.261       .  A
C489        C653   1.491       .  S
C490        C583   1.469       .  S
C492        C605   1.484       .  S
C494        C575   1.479       .  S
C495        O496   1.290       .  A
C495        C571   1.471       .  S
C497        N498   1.361       .  A
C497        N502   1.360   1_565  A
C497        C696   1.425       .  S
N498        C499   1.356       .  A
C499        C518   1.476       .  S
C499        N500   1.367   1_565  A
N500        C501   1.362       .  A
C501        N502   1.354       .  A
O503        C519   1.279       .  A
O503       Zn509   2.045       .  S
C504        O520   1.275       .  A
C504        O517   1.278       .  A
C504        C655   1.491       .  S
O505        C518   1.288       .  A
O505       Cd512   2.169       .  S
O506        C524   1.262       .  A
O506       Cd515   1.989       .  S
O507        C521   1.278       .  A
O507       Cd511   2.097       .  S
O508        C519   1.274       .  A
O508       Cd511   2.071       .  S
Zn509       O520   2.035       .  S
Zn509       O522   1.921       .  S
Zn509       O514   1.930       .  S
O510        C521   1.276       .  A
O510       Cd515   2.070       .  S
Cd511       O513   1.999       .  S
Cd511       O514   1.986       .  S
Cd512       O516   2.186       .  S
Cd512       O525   2.176       .  S
Cd512       O514   2.060       .  S
O513        C523   1.263       .  A
O514       Cd515   1.981       .  S
Cd515       O517   2.103       .  S
O516        C523   1.289       .  A
C518        O522   1.259       .  A
C519        C649   1.477       .  S
C521        C641   1.480       .  S
C524        O525   1.289       .  A
C524        C551   1.480       .  S
O526        C542   1.278       .  A
O526       Zn532   2.047       .  S
C527        O543   1.274       .  A
C527        O540   1.274       .  A
C527        C563   1.472       .  S
O528        C541   1.286       .  A
O528       Cd535   2.169       .  S
O529        C547   1.263       .  A
O529       Cd538   1.998       .  S
O530        C544   1.277       .  A
O530       Cd534   2.091       .  S
O531        C542   1.273       .  A
O531       Cd534   2.058       .  S
Zn532       O543   2.025       .  S
Zn532       O545   1.910       .  S
Zn532       O537   1.921       .  S
O533        C544   1.272       .  A
O533       Cd538   2.050       .  S
Cd534       O536   1.983       .  S
Cd534       O537   1.980       .  S
Cd535       O539   2.165       .  S
Cd535       O548   2.173       .  S
Cd535       O537   2.058       .  S
O536        C546   1.261       .  A
O537       Cd538   1.966       .  S
Cd538       O540   2.062       .  S
O539        C546   1.288       .  A
C541        O545   1.258       .  A
C541        C557   1.473       .  S
C542        C553   1.479       .  S
C544        C601   1.474       .  S
C546        C643   1.471       .  S
C547        O548   1.287       .  A
C547        C619   1.481       .  S
C549        N550   1.365       .  A
C549        N554   1.360   1_655  A
C549        C682   1.427       .  S
N550        C551   1.358       .  A
C551        N552   1.364   1_655  A
N552        C553   1.358       .  A
C553        N554   1.353       .  A
C555        N556   1.363       .  A
C555        N560   1.362       .  A
C555        C661   1.420       .  S
N556        C557   1.354   1_655  A
C557        N558   1.360       .  A
N558        C559   1.360       .  A
C559        N560   1.352   1_455  A
C561        N562   1.355       .  A
C561        N566   1.356       .  A
C561        C663   1.421       .  S
N562        C563   1.354       .  A
C563        N564   1.364       .  A
N564        C565   1.366       .  A
C565        N566   1.354       .  A
C567        N568   1.358       .  A
C567        N572   1.359       .  A
C567        C666   1.417       .  S
N568        C569   1.352   1_565  A
C569        N570   1.361       .  A
N570        C571   1.367       .  A
C571        N572   1.353   1_545  A
C573        N574   1.367       .  A
C573        N578   1.366   1_655  A
C573        C684   1.435       .  S
N574        C575   1.358       .  A
C575        N576   1.360       .  A
N576        C577   1.359   1_655  A
C577        N578   1.356       .  A
C579        N580   1.351       .  A
C579        N584   1.352   1_455  A
C579        C686   1.404       .  S
N580        C581   1.349       .  A
C581        N582   1.367       .  A
N582        C583   1.366   1_455  A
C583        N584   1.349       .  A
C585        N586   1.364       .  A
C585        N590   1.366       .  A
C585        C668   1.431       .  S
N586        C587   1.355       .  A
C587        N588   1.356       .  A
N588        C589   1.357       .  A
C589        N590   1.358       .  A
C591        N592   1.362       .  A
C591        N596   1.361   1_565  A
C591        C694   1.418       .  S
N592        C593   1.353       .  A
C593        N594   1.361       .  A
N594        C595   1.359   1_565  A
C595        N596   1.353       .  A
C597        N598   1.361       .  A
C597        N602   1.361   1_554  A
C597        C689   1.420       .  S
N598        C599   1.354       .  A
C599        N600   1.360   1_554  A
N600        C601   1.356       .  A
C601        N602   1.353       .  A
C603        N604   1.362       .  A
C603        N608   1.365       .  A
C603        C659   1.434       .  S
N604        C605   1.355       .  A
C605        N606   1.361       .  A
N606        C607   1.366       .  A
C607        N608   1.359       .  A
C609        N610   1.360       .  A
C609        N614   1.368       .  A
C609        C702   1.433       .  S
N610        C611   1.353       .  A
C611        N612   1.352       .  A
N612        C613   1.360       .  A
C613        N614   1.361       .  A
C615        N616   1.365       .  A
C615        N620   1.367   1_554  A
C615        C692   1.438   1_554  S
N616        C617   1.357       .  A
C617        N618   1.357   1_554  A
N618        C619   1.361       .  A
C619        N620   1.360       .  A
C621        N622   1.356       .  A
C621        N626   1.356   1_565  A
C621        C688   1.422       .  S
N622        C623   1.354       .  A
C623        N624   1.369       .  A
N624        C625   1.368   1_565  A
C625        N626   1.354       .  A
C627        N628   1.367       .  A
C627        N632   1.360       .  A
C627        C699   1.428       .  S
N628        C629   1.360       .  A
C629        N630   1.360       .  A
N630        C631   1.356       .  A
C631        N632   1.352       .  A
C633        N634   1.352       .  A
C633        N638   1.351       .  A
C633        C679   1.403       .  S
N634        C635   1.349       .  A
C635        N636   1.362       .  A
N636        C637   1.362       .  A
C637        N638   1.348       .  A
C639        N640   1.363   1_455  A
C639        N644   1.362       .  A
C639        C676   1.428       .  S
N640        C641   1.355   1_554  A
C641        N642   1.358   1_655  A
N642        C643   1.362       .  A
C643        N644   1.356   1_556  A
C645        N646   1.353       .  A
C645        N650   1.357       .  A
C645        C671   1.419       .  S
N646        C647   1.352   1_545  A
C647        N648   1.367       .  A
N648        C649   1.368   1_554  A
C649        N650   1.355   1_566  A
C651        N652   1.368       .  A
C651        N656   1.363   1_545  A
C651        C673   1.442       .  S
N652        C653   1.362   1_455  A
C653        N654   1.367       .  A
N654        C655   1.363   1_545  A
C655        N656   1.357   1_655  A
C657        C658   1.201       .  T
C659        C660   1.205       .  T
C661        C662   1.196       .  T
C663        C664   1.197       .  T
C665        C666   1.195       .  T
C667        C668   1.203       .  T
C669        C670   1.196       .  T
C671        C672   1.196       .  T
C673        C674   1.210       .  T
C675        C676   1.201       .  T
C677        C678   1.206       .  T
C679        C680   1.187       .  T
C681        C682   1.201       .  T
C683        C684   1.205       .  T
C685        C686   1.187       .  T
C687        C688   1.198       .  T
C689        C690   1.197       .  T
C691        C692   1.208       .  T
C693        C694   1.195       .  T
C695        C696   1.200       .  T
C697        C698   1.206       .  T
C699        C700   1.202       .  T
C701        C702   1.205       .  T
C703        C704   1.209       .  T
