geometry optimzed in LAMMPS
_audit_creation_date              2020-11-30 
_audit_creation_method            'lammps2cif' 
_symmetry_space_group_name_H-M    'P1' 
_symmetry_Int_Tables_number       1 
_symmetry_cell_setting            triclinic 
loop_ 
_symmetry_equiv_pos_as_xyz 
  x,y,z 
_cell_length_a                    103.88597806 
_cell_length_b                    103.82853487401003 
_cell_length_c                    35.7835364888391 
_cell_angle_alpha                 89.87150325875663 
_cell_angle_beta                  89.94607021743249 
_cell_angle_gamma                 89.89958535765221 
loop_ 
_atom_site_label 
_atom_site_type_symbol 
_atom_site_fract_x 
_atom_site_fract_y 
_atom_site_fract_z 
_atom_site_charge 
C1          C  0.19601830  0.54499994  0.17161924     0.03800
C2          C  0.20616603  0.54567803  0.19731987    -0.12300
C3          C  0.21609439  0.53653255  0.19697277     0.01300
C4          C  0.21594358  0.52668746  0.17005285    -0.10900
C5          C  0.20579561  0.52587421  0.14426965     0.03800
C6          C  0.19578848  0.53494189  0.14545656    -0.10300
H7          H  0.20636912  0.55339990  0.21765224     0.09400
H8          H  0.22370589  0.51970996  0.16909780     0.06900
H9          H  0.18796477  0.53431204  0.12553392     0.06800
C10         C  0.19778583  0.43928414  0.91266610     0.03800
C11         C  0.19701218  0.44980509  0.93718365    -0.12300
C12         C  0.20675620  0.45910739  0.93806728     0.01300
C13         C  0.21697005  0.45836453  0.91234784    -0.10900
C14         C  0.21762298  0.44812339  0.88677265     0.03800
C15         C  0.20823713  0.43845393  0.88785028    -0.10300
H16         H  0.18899691  0.45057773  0.95647367     0.09400
H17         H  0.22442637  0.46565642  0.91245093     0.06900
H18         H  0.20903736  0.43033595  0.86904540     0.06800
C19         C  0.30626105  0.43644327  0.65873346     0.03800
C20         C  0.29585548  0.43577960  0.68397731    -0.12300
C21         C  0.28715150  0.44605649  0.68748714     0.01300
C22         C  0.28825329  0.45672189  0.66354722    -0.10900
C23         C  0.29807599  0.45726942  0.63654406     0.03800
C24         C  0.30734079  0.44738906  0.63552347    -0.10300
H25         H  0.29459606  0.42734294  0.70145255     0.09400
H26         H  0.28131339  0.46449806  0.66549330     0.06900
H27         H  0.31523867  0.44811238  0.61587482     0.06800
C28         C  0.30421584  0.55096625  0.42343429     0.03800
C29         C  0.29361986  0.55150968  0.39894020    -0.12300
C30         C  0.28485588  0.54129097  0.39690630     0.01300
C31         C  0.28611133  0.53078096  0.42121570    -0.10900
C32         C  0.29624700  0.53028340  0.44697415     0.03800
C33         C  0.30543554  0.54022468  0.44744543    -0.10300
H34         H  0.29238418  0.55971296  0.38051528     0.09400
H35         H  0.27923044  0.52295797  0.41996693     0.06900
H36         H  0.31353942  0.53952998  0.46637669     0.06800
C37         C  0.19182700  0.94105826  0.21014534     0.03800
C38         C  0.19168974  0.95022243  0.18123808    -0.12300
C39         C  0.20109217  0.95988805  0.17979176     0.01300
C40         C  0.21065615  0.96037528  0.20730600    -0.10900
C41         C  0.21092424  0.95122812  0.23615594     0.03800
C42         C  0.20146981  0.94158751  0.23757265    -0.10300
H43         H  0.18433704  0.94978321  0.15981415     0.09400
H44         H  0.21799876  0.96776802  0.20597023     0.06900
H45         H  0.20171745  0.93442582  0.25964144     0.06800
C46         C  0.30681477  0.94309434  0.43410811     0.03800
C47         C  0.29634084  0.94346382  0.40924686    -0.12300
C48         C  0.28633941  0.95240251  0.41453505     0.01300
C49         C  0.28686859  0.96100306  0.44452560    -0.10900
C50         C  0.29726898  0.96071760  0.46931450     0.03800
C51         C  0.30722830  0.95177741  0.46411405    -0.10300
H52         H  0.29589631  0.93672591  0.38620390     0.09400
H53         H  0.27913161  0.96787237  0.44872856     0.06900
H54         H  0.31521076  0.95148928  0.48358269     0.06800
C55         C  0.30344121  0.04613295  0.70229315     0.03800
C56         C  0.30344917  0.03654654  0.67478293    -0.12300
C57         C  0.29359179  0.02735530  0.67369366     0.01300
C58         C  0.28365830  0.02782777  0.70009404    -0.10900
C59         C  0.28361402  0.03733429  0.72780835     0.03800
C60         C  0.29348810  0.04651873  0.72876991    -0.10300
H61         H  0.31119970  0.03614677  0.65451109     0.09400
H62         H  0.27611030  0.02063342  0.69957598     0.06900
H63         H  0.29353861  0.05381184  0.75039666     0.06800
C64         C  0.19248931  0.04565394  0.94207070     0.03800
C65         C  0.20281619  0.04560011  0.91687476    -0.12300
C66         C  0.21264941  0.03645628  0.92026059     0.01300
C67         C  0.21219037  0.02728306  0.94894273    -0.10900
C68         C  0.20188913  0.02715223  0.97429891     0.03800
C69         C  0.19198614  0.03635115  0.97069637    -0.10300
H70         H  0.20323047  0.05272138  0.89470376     0.09400
H71         H  0.21980791  0.02018031  0.95136283     0.06900
H72         H  0.18404612  0.03638630  0.99035062     0.06800
N73         N  0.43396891  0.85327029  0.45605417    -0.26600
N74         N  0.43594912  0.84070196  0.45736386    -0.34500
C75         C  0.44848302  0.83835204  0.46336433     0.01700
C76         C  0.45484114  0.84997746  0.46604394     0.07800
C77         C  0.44534412  0.85928111  0.46114686    -0.05300
H78         H  0.45272632  0.82883410  0.46462410     0.08400
H79         H  0.44663502  0.86961424  0.46098430     0.09600
Cu80       Cu  0.42190229  0.82710380  0.44826596     0.44200
Cu81       Cu  0.41567419  0.86110192  0.44637022     0.42000
Cu82       Cu  0.39028180  0.83717533  0.42385811     0.43900
N83         N  0.40760938  0.81442673  0.43323219    -0.34000
N84         N  0.39585033  0.81796480  0.42367722    -0.28200
C85         C  0.38905531  0.80738695  0.41443905    -0.04300
C86         C  0.39704393  0.79674190  0.41826214     0.07900
C87         C  0.40868047  0.80160483  0.43035211     0.01700
H88         H  0.37914058  0.80745962  0.40525561     0.09300
H89         H  0.41733832  0.79619896  0.43657093     0.08400
N90         N  0.38733052  0.85691079  0.42819037    -0.35400
N91         N  0.39627052  0.86552050  0.43658083    -0.27600
C92         C  0.39071356  0.87725555  0.43799183    -0.02900
C93         C  0.37772912  0.87595455  0.42993500     0.05800
C94         C  0.37596100  0.86293963  0.42391883     0.03800
H95         H  0.39574611  0.88609161  0.44442010     0.09000
H96         H  0.36699228  0.85815066  0.41745857     0.07800
N97         N  0.57318059  0.84880751  0.47689020    -0.26600
N98         N  0.57072332  0.83635864  0.47939018    -0.34500
C99         C  0.55796199  0.83454011  0.48139585     0.01700
C100        C  0.55194802  0.84640252  0.47975947     0.07800
C101        C  0.56190251  0.85528777  0.47712638    -0.05300
H102        H  0.55336637  0.82519486  0.48242179     0.08400
H103        H  0.56098039  0.86561166  0.47396298     0.09600
Cu104      Cu  0.58454683  0.82222985  0.47466456     0.44200
Cu105      Cu  0.59197113  0.85562449  0.47018118     0.42000
Cu106      Cu  0.61674290  0.83073865  0.44863736     0.43900
N107        N  0.59851323  0.80879466  0.46238726    -0.34000
N108        N  0.61043285  0.81165115  0.45255865    -0.28200
C109        C  0.61689606  0.80056457  0.44635094    -0.04300
C110        C  0.60855970  0.79030686  0.45257154     0.07900
C111        C  0.59700582  0.79597229  0.46244152     0.01700
H112        H  0.62691372  0.80000295  0.43825574     0.09300
H113        H  0.58806594  0.79111832  0.46896491     0.08400
N114        N  0.62020231  0.85057378  0.45159587    -0.35400
N115        N  0.61152303  0.85932106  0.46115236    -0.27600
C116        C  0.61734501  0.87086062  0.46377911    -0.02900
C117        C  0.63030228  0.86948207  0.45491341     0.05800
C118        C  0.63165592  0.85643748  0.44705432     0.03800
H119        H  0.61249690  0.87957893  0.47244390     0.09000
H120        H  0.64037132  0.85147573  0.43890817     0.07800
N121        N  0.39391033  0.67899525  0.41321734    -0.26600
N122        N  0.40633295  0.68152451  0.41595702    -0.34500
C123        C  0.40803206  0.69431590  0.41785347     0.01700
C124        C  0.39610793  0.70020403  0.41631697     0.07800
C125        C  0.38733914  0.69020020  0.41327456    -0.05300
H126        H  0.41729489  0.69899646  0.42019577     0.08400
H127        H  0.37696860  0.69099887  0.41170000     0.09600
Cu128      Cu  0.42045153  0.66757428  0.41895163     0.44200
Cu129      Cu  0.38686711  0.66024742  0.41131086     0.42000
Cu130      Cu  0.41058240  0.63507094  0.43602173     0.43900
N131        N  0.43327961  0.65274127  0.42838041    -0.34000
N132        N  0.42984757  0.64075996  0.43582875    -0.28200
C133        C  0.44056075  0.63370966  0.44206030    -0.04300
C134        C  0.45120226  0.64171310  0.43839131     0.07900
C135        C  0.44614488  0.65365878  0.42950388     0.01700
H136        H  0.44058992  0.62356842  0.44909868     0.09300
H137        H  0.45145714  0.66245313  0.42431880     0.08400
N138        N  0.39094740  0.63187379  0.42772638    -0.35400
N139        N  0.38262053  0.64072285  0.41650594    -0.27600
C140        C  0.37109550  0.63511408  0.41109087    -0.02900
C141        C  0.37205857  0.62211211  0.41996760     0.05800
C142        C  0.38482537  0.62051123  0.43059757     0.03800
H143        H  0.36267119  0.64018000  0.40110373     0.09000
H144        H  0.38938960  0.61170283  0.43988528     0.07800
N145        N  0.56915597  0.63590483  0.43998508    -0.26600
N146        N  0.56673486  0.64839250  0.44203550    -0.34500
C147        C  0.55394554  0.65027789  0.44195317     0.01700
C148        C  0.54794406  0.63843610  0.43980198     0.07800
C149        C  0.55787618  0.62949785  0.43875331    -0.05300
H150        H  0.54933406  0.65962368  0.44300172     0.08400
H151        H  0.55696893  0.61914812  0.43636371     0.09600
Cu152      Cu  0.58073644  0.66255782  0.44334342     0.44200
Cu153      Cu  0.58784475  0.62858945  0.43698381     0.42000
Cu154      Cu  0.61353534  0.65321184  0.43327250     0.43900
N155        N  0.59570700  0.67568021  0.44096829    -0.34000
N156        N  0.60789807  0.67234571  0.43688071    -0.28200
C157        C  0.61512420  0.68308590  0.43430613    -0.04300
C158        C  0.60702514  0.69368730  0.43677127     0.07900
C159        C  0.59481340  0.68857764  0.44119235     0.01700
H160        H  0.62542522  0.68316041  0.42986798     0.09300
H161        H  0.58587366  0.69386997  0.44369928     0.08400
N162        N  0.61658638  0.63348517  0.43018942    -0.35400
N163        N  0.60747179  0.62459656  0.43206717    -0.27600
C164        C  0.61302622  0.61288433  0.43028358    -0.02900
C165        C  0.62620058  0.61451153  0.42689033     0.05800
C166        C  0.62809901  0.62766619  0.42692649     0.03800
H167        H  0.60786741  0.60384432  0.43153782     0.09000
H168        H  0.63722722  0.63265709  0.42546517     0.07800
C169        C  0.80736562  0.44242627  0.92387111     0.03800
C170        C  0.80802544  0.45177059  0.95196672    -0.12300
C171        C  0.79715120  0.45919229  0.96152513     0.01300
C172        C  0.78580171  0.45756684  0.94043797    -0.10900
C173        C  0.78560107  0.44941139  0.90923800     0.03800
C174        C  0.79626594  0.44152282  0.90183583    -0.10300
H175        H  0.81699529  0.45297372  0.96691768     0.09400
H176        H  0.77718839  0.46293481  0.94737073     0.06900
H177        H  0.79594500  0.43473111  0.87890003     0.06800
C178        C  0.80947439  0.54388200  0.20331079     0.03800
C179        C  0.79853871  0.54489951  0.22588088    -0.12300
C180        C  0.78830230  0.53635884  0.22105264     0.01300
C181        C  0.78876141  0.52715718  0.19257797    -0.10900
C182        C  0.79991094  0.52565449  0.17066723     0.03800
C183        C  0.81038959  0.53395496  0.17696884    -0.10300
H184        H  0.79800605  0.55229370  0.24716998     0.09400
H185        H  0.78048555  0.52102006  0.18808934     0.06900
H186        H  0.81916565  0.53293005  0.16087980     0.06800
C187        C  0.69587882  0.54635285  0.43119219     0.03800
C188        C  0.69574852  0.53722707  0.46025269    -0.12300
C189        C  0.70565262  0.52805139  0.46313260     0.01300
C190        C  0.71563712  0.52799747  0.43683857    -0.10900
C191        C  0.71573634  0.53701242  0.40773878     0.03800
C192        C  0.70588018  0.54615616  0.40491398    -0.10300
H193        H  0.68801854  0.53730031  0.48060828     0.09400
H194        H  0.72325463  0.52087873  0.43881954     0.06900
H195        H  0.70600669  0.55312923  0.38232191     0.06800
C196        C  0.69586326  0.43847796  0.68672592     0.03800
C197        C  0.70491046  0.43890017  0.71576739    -0.12300
C198        C  0.71413604  0.44876759  0.71696025     0.01300
C199        C  0.71416168  0.45826225  0.68898619    -0.10900
C200        C  0.70507293  0.45796173  0.66003702     0.03800
C201        C  0.69597210  0.44801049  0.65892503    -0.10300
H202        H  0.70477553  0.43156689  0.73736178     0.09400
H203        H  0.72126361  0.46589477  0.68973064     0.06900
H204        H  0.68893908  0.44772594  0.63658530     0.06800
N205        N  0.89256824  0.81050593  0.20167351    -0.26600
N206        N  0.90489569  0.80747362  0.20431167    -0.34500
C207        C  0.90613482  0.79462708  0.20533104     0.01700
C208        C  0.89402040  0.78925201  0.20319363     0.07800
C209        C  0.88559124  0.79957677  0.20103294    -0.05300
H210        H  0.91522789  0.78954718  0.20714736     0.08400
H211        H  0.87521893  0.79917512  0.19855127     0.09600
Cu212      Cu  0.91963271  0.82071764  0.20544999     0.44200
Cu213      Cu  0.88626658  0.82946849  0.19883714     0.42000
Cu214      Cu  0.91157795  0.85421343  0.20541101     0.43900
N215        N  0.93323619  0.83512575  0.20580121    -0.34000
N216        N  0.93039974  0.84753628  0.20636155    -0.28200
C217        C  0.94141818  0.85434674  0.20702929    -0.04300
C218        C  0.95158087  0.84572388  0.20658201     0.07900
C219        C  0.94606785  0.83365957  0.20578609     0.01700
H220        H  0.94198687  0.86474785  0.20749937     0.09300
H221        H  0.95102240  0.82447914  0.20545470     0.08400
N222        N  0.89198434  0.85805212  0.20310830    -0.35400
N223        N  0.88289416  0.84918591  0.20019399    -0.27600
C224        C  0.87134741  0.85504375  0.19942011    -0.02900
C225        C  0.87322482  0.86820236  0.20209105     0.05800
C226        C  0.88642620  0.86973797  0.20438628     0.03800
H227        H  0.86222553  0.85006558  0.19707646     0.09000
H228        H  0.89163553  0.87872175  0.20713719     0.07800
N229        N  0.89438804  0.67151277  0.20925061    -0.26600
N230        N  0.90630472  0.67477480  0.20051626    -0.34500
C231        C  0.90735678  0.68764253  0.20069417     0.01700
C232        C  0.89553720  0.69283174  0.20995697     0.07800
C233        C  0.88746975  0.68233391  0.21505784    -0.05300
H234        H  0.91611408  0.69285443  0.19450981     0.08400
H235        H  0.87740310  0.68254403  0.22281020     0.09600
Cu236      Cu  0.92087418  0.66178745  0.18995791     0.44200
Cu237      Cu  0.88875026  0.65232562  0.21326609     0.42000
Cu238      Cu  0.91522140  0.62845400  0.20757255     0.43900
N239        N  0.93511769  0.64799453  0.18694037    -0.34000
N240        N  0.93325878  0.63570935  0.19480867    -0.28200
C241        C  0.94464794  0.62951978  0.19355446    -0.04300
C242        C  0.95410068  0.63840190  0.18448408     0.07900
C243        C  0.94766192  0.64997972  0.18022345     0.01700
H244        H  0.94600032  0.61942138  0.19996731     0.09300
H245        H  0.95183786  0.65926996  0.17388215     0.08400
N246        N  0.89591054  0.62391171  0.21348927    -0.35400
N247        N  0.88640532  0.63240923  0.21497597    -0.27600
C248        C  0.87515382  0.62604246  0.21649256    -0.02900
C249        C  0.87768478  0.61294909  0.21592017     0.05800
C250        C  0.89094333  0.61196588  0.21410699     0.03800
H251        H  0.86578938  0.63061703  0.21706583     0.09000
H252        H  0.89658306  0.60320925  0.21276270     0.07800
N253        N  0.07172144  0.63612200  0.16642979    -0.26600
N254        N  0.06856953  0.64817343  0.17401477    -0.34500
C255        C  0.05572411  0.64919761  0.17586818     0.01700
C256        C  0.05047785  0.63721657  0.16933541     0.07800
C257        C  0.06087189  0.62908137  0.16359079    -0.05300
H258        H  0.05055241  0.65806048  0.18138619     0.08400
H259        H  0.06056749  0.61889633  0.15730294     0.09600
Cu260      Cu  0.08172504  0.66280045  0.18116479     0.44200
Cu261      Cu  0.09077941  0.63036375  0.16084512     0.42000
Cu262      Cu  0.11484256  0.65419950  0.19163443     0.43900
N263        N  0.09628868  0.67618549  0.18523996    -0.34000
N264        N  0.10856563  0.67315240  0.18915726    -0.28200
C265        C  0.11559234  0.68404336  0.18891786    -0.04300
C266        C  0.10726996  0.69439337  0.18463099     0.07900
C267        C  0.09512673  0.68902056  0.18258213     0.01700
H268        H  0.12597812  0.68437594  0.19086555     0.09300
H269        H  0.08608530  0.69407690  0.17908370     0.08400
N270        N  0.11863716  0.63488022  0.18189381    -0.35400
N271        N  0.11034930  0.62679540  0.16675748    -0.27600
C272        C  0.11633034  0.61555273  0.16023226    -0.02900
C273        C  0.12891438  0.61631006  0.17319184     0.05800
C274        C  0.12993450  0.62878840  0.18684312     0.03800
H275        H  0.11170805  0.60741315  0.14718280     0.09000
H276        H  0.13818173  0.63316423  0.20004531     0.07800
N277        N  0.06904814  0.84892750  0.20010155    -0.26600
N278        N  0.06637819  0.83723261  0.18791685    -0.34500
C279        C  0.05357067  0.83565307  0.18757612     0.01700
C280        C  0.04785205  0.84680724  0.20075573     0.07800
C281        C  0.05797885  0.85507052  0.20821432    -0.05300
H282        H  0.04878702  0.82679951  0.17978683     0.08400
H283        H  0.05739744  0.86461508  0.22016666     0.09600
Cu284      Cu  0.08008413  0.82309990  0.17890360     0.44200
Cu285      Cu  0.08767110  0.85543931  0.20728649     0.42000
Cu286      Cu  0.11261482  0.83066563  0.20537650     0.43900
N287        N  0.09440838  0.80936946  0.18470631    -0.34000
N288        N  0.10623727  0.81200611  0.19582999    -0.28200
C289        C  0.11279365  0.80089341  0.19992932    -0.04300
C290        C  0.10467510  0.79077926  0.19094147     0.07900
C291        C  0.09312479  0.79655805  0.18127567     0.01700
H292        H  0.12264186  0.80022052  0.20953246     0.09300
H293        H  0.08432787  0.79178205  0.17300944     0.08400
N294        N  0.11628021  0.85028505  0.20949972    -0.35400
N295        N  0.10718806  0.85921930  0.21003593    -0.27600
C296        C  0.11271702  0.87089838  0.21092961    -0.02900
C297        C  0.12592744  0.86927971  0.21091066     0.05800
C298        C  0.12785422  0.85608421  0.21008407     0.03800
H299        H  0.10749270  0.87992492  0.21108541     0.09000
H300        H  0.13698896  0.85107580  0.20897998     0.07800
N301        N  0.57010200  0.34850500  0.66672876    -0.26600
N302        N  0.56727987  0.33616413  0.67070482    -0.34500
C303        C  0.55443189  0.33475238  0.67099645     0.01700
C304        C  0.54883681  0.34675994  0.66695943     0.07800
C305        C  0.55904960  0.35528350  0.66416053    -0.05300
H306        H  0.54949994  0.32564115  0.67429204     0.08400
H307        H  0.55848169  0.36564916  0.66135606     0.09600
Cu308      Cu  0.58092154  0.32175425  0.67706587     0.44200
Cu309      Cu  0.58898366  0.35523512  0.66717488     0.42000
Cu310      Cu  0.61424720  0.33055165  0.68086429     0.43900
N311        N  0.59562302  0.30853959  0.68513121    -0.34000
N312        N  0.60794734  0.31162682  0.68671883    -0.28200
C313        C  0.61491487  0.30080729  0.69213297    -0.04300
C314        C  0.60652452  0.29043342  0.69386832     0.07900
C315        C  0.59440163  0.29575615  0.68944349     0.01700
H316        H  0.62530538  0.30049050  0.69406160     0.09300
H317        H  0.58530385  0.29067069  0.68930614     0.08400
N318        N  0.61766300  0.35023047  0.67539384    -0.35400
N319        N  0.60862836  0.35910081  0.67071014    -0.27600
C320        C  0.61422039  0.37078550  0.66967350    -0.02900
C321        C  0.62738924  0.36923147  0.67387044     0.05800
C322        C  0.62919485  0.35606276  0.67729679     0.03800
H323        H  0.60903786  0.37978799  0.66691853     0.09000
H324        H  0.63824601  0.35106922  0.68127464     0.07800
N325        N  0.43107563  0.34500020  0.64740708    -0.26600
N326        N  0.43399483  0.33318894  0.65831048    -0.34500
C327        C  0.44678939  0.33211749  0.66210552     0.01700
C328        C  0.45234497  0.34379506  0.65302535     0.07800
C329        C  0.44207116  0.35180448  0.64395890    -0.05300
H330        H  0.45171279  0.32340037  0.67071388     0.08400
H331        H  0.44256500  0.36176887  0.63516609     0.09600
Cu332      Cu  0.42065636  0.31877354  0.66586807     0.44200
Cu333      Cu  0.41202058  0.35077068  0.63915590     0.42000
Cu334      Cu  0.38711996  0.32609910  0.65897026     0.43900
N335        N  0.40658087  0.30484732  0.66528066    -0.34000
N336        N  0.39415161  0.30732294  0.66215831    -0.28200
C337        C  0.38775380  0.29606828  0.65970680    -0.04300
C338        C  0.39666373  0.28609914  0.66125878     0.07900
C339        C  0.40846125  0.29206844  0.66501787     0.01700
H340        H  0.37745531  0.29521316  0.65599724     0.09300
H341        H  0.41779872  0.28745936  0.66668580     0.08400
N342        N  0.38345782  0.34568703  0.65143576    -0.35400
N343        N  0.39223787  0.35429882  0.64181348    -0.27600
C344        C  0.38647612  0.36583088  0.63778982    -0.02900
C345        C  0.37347191  0.36460574  0.64615834     0.05800
C346        C  0.37198505  0.35163234  0.65472137     0.03800
H347        H  0.39149655  0.37452307  0.62977949     0.09000
H348        H  0.36325414  0.34685591  0.66353944     0.07800
N349        N  0.60702251  0.17338425  0.73074738    -0.26600
N350        N  0.59503358  0.17660954  0.72256545    -0.34500
C351        C  0.59399455  0.18950937  0.72230351     0.01700
C352        C  0.60590725  0.19470439  0.73043000     0.07800
C353        C  0.61397921  0.18420606  0.73554365    -0.05300
H354        H  0.58532356  0.19474223  0.71519516     0.08400
H355        H  0.62419500  0.18442177  0.74134865     0.09600
Cu356      Cu  0.58081798  0.16349615  0.70846218     0.44200
Cu357      Cu  0.61331505  0.15435562  0.73164335     0.42000
Cu358      Cu  0.59055867  0.13095444  0.69182978     0.43900
N359        N  0.56805971  0.14906166  0.69353431    -0.34000
N360        N  0.57158256  0.13702021  0.68733909    -0.28200
C361        C  0.56101039  0.12989254  0.68067674    -0.04300
C362        C  0.55033179  0.13788531  0.68263724     0.07900
C363        C  0.55519095  0.14995705  0.69076605     0.01700
H364        H  0.56106414  0.11961496  0.67577183     0.09300
H365        H  0.54971590  0.15865996  0.69577038     0.08400
N366        N  0.60954209  0.12690522  0.70555020    -0.35400
N367        N  0.61745536  0.13502674  0.72222275    -0.27600
C368        C  0.62865198  0.12895864  0.72917675    -0.02900
C369        C  0.62788354  0.11646739  0.71561968     0.05800
C370        C  0.61560439  0.11559255  0.70070424     0.03800
H371        H  0.63677220  0.13338624  0.74295669     0.09000
H372        H  0.61136807  0.10737457  0.68690667     0.07800
N373        N  0.39552269  0.16821680  0.67375871    -0.26600
N374        N  0.40789188  0.17067023  0.66913658    -0.34500
C375        C  0.40958949  0.18341342  0.66567590     0.01700
C376        C  0.39771730  0.18933378  0.66829843     0.07800
C377        C  0.38895913  0.17942175  0.67326369    -0.05300
H378        H  0.41884187  0.18805908  0.66239662     0.08400
H379        H  0.37868216  0.18031813  0.67743938     0.09600
Cu380      Cu  0.42208388  0.15683125  0.67096837     0.44200
Cu381      Cu  0.38882769  0.14968051  0.68320015     0.42000
Cu382      Cu  0.41399205  0.12471325  0.69816052     0.43900
N383        N  0.43562456  0.14259277  0.67885066    -0.34000
N384        N  0.43288798  0.13067595  0.68916296    -0.28200
C385        C  0.44399759  0.12406638  0.69319000    -0.04300
C386        C  0.45409898  0.13234307  0.68520591     0.07900
C387        C  0.44842172  0.14395487  0.67625731     0.01700
H388        H  0.44468843  0.11413469  0.70220446     0.09300
H389        H  0.45327095  0.15285903  0.66914227     0.08400
N390        N  0.39420104  0.12156465  0.70105639    -0.35400
N391        N  0.38526385  0.13040512  0.69467361    -0.27600
C392        C  0.37360542  0.12482383  0.69612852    -0.02900
C393        C  0.37520960  0.11186276  0.70397691     0.05800
C394        C  0.38840184  0.11017394  0.70709001     0.03800
H395        H  0.36463151  0.12979109  0.69075841     0.09000
H396        H  0.39345680  0.10125193  0.71255158     0.07800
C397        C  0.80564157  0.93866231  0.20122658     0.03800
C398        C  0.79587691  0.93929970  0.22830743    -0.12300
C399        C  0.78692355  0.94942560  0.22776561     0.01300
C400        C  0.78771980  0.95891252  0.19996291    -0.10900
C401        C  0.79747145  0.95835684  0.17289341     0.03800
C402        C  0.80640852  0.94823306  0.17359251    -0.10300
H403        H  0.79529056  0.93197548  0.24986588     0.09400
H404        H  0.78084068  0.96677410  0.19959043     0.06900
H405        H  0.81398307  0.94783740  0.15276666     0.06800
C406        C  0.80750246  0.04887571  0.95196228     0.03800
C407        C  0.79753913  0.04883633  0.92555858    -0.12300
C408        C  0.78851242  0.03880953  0.92527238     0.01300
C409        C  0.78944712  0.02886482  0.95170217    -0.10900
C410        C  0.79935023  0.02890381  0.97825919     0.03800
C411        C  0.80840442  0.03888470  0.97824703    -0.10300
H412        H  0.79682692  0.05656935  0.90526849     0.09400
H413        H  0.78240102  0.02117572  0.95184425     0.06900
H414        H  0.81601746  0.03897333  0.99893906     0.06800
C415        C  0.69902945  0.93976804  0.45426567     0.03800
C416        C  0.70937533  0.93993214  0.42876874    -0.12300
C417        C  0.71819566  0.95019048  0.42840490     0.01300
C418        C  0.71712297  0.95995711  0.45520327    -0.10900
C419        C  0.70714403  0.95971984  0.48157957     0.03800
C420        C  0.69790322  0.94991722  0.48002455    -0.10300
H421        H  0.71056996  0.93212997  0.40901540     0.09400
H422        H  0.72413022  0.96767852  0.45575334     0.06900
H423        H  0.68996049  0.95005880  0.49965607     0.06800
C424        C  0.69615987  0.04629955  0.71236974     0.03800
C425        C  0.69534149  0.03592606  0.68731174    -0.12300
C426        C  0.70490425  0.02637350  0.68681609     0.01300
C427        C  0.71503414  0.02685161  0.71250794    -0.10900
C428        C  0.71587142  0.03705627  0.73784754     0.03800
C429        C  0.70661423  0.04687632  0.73720903    -0.10300
H430        H  0.68737613  0.03534527  0.66786416     0.09400
H431        H  0.72239402  0.01943670  0.71228779     0.06900
H432        H  0.70749220  0.05489760  0.75636627     0.06800
N433        N  0.92938414  0.14311483  0.96304624    -0.26600
N434        N  0.93163171  0.15557170  0.95946002    -0.34500
C435        C  0.94434431  0.15752279  0.95624984     0.01700
C436        C  0.95048559  0.14572982  0.95800603     0.07800
C437        C  0.94070483  0.13675897  0.96223326    -0.05300
H438        H  0.94879239  0.16686165  0.95251664     0.08400
H439        H  0.94173818  0.12641851  0.96446584     0.09600
Cu440      Cu  0.91738785  0.16938351  0.95871266     0.44200
Cu441      Cu  0.91079274  0.13586716  0.96732688     0.42000
Cu442      Cu  0.88433180  0.15995634  0.96202262     0.43900
N443        N  0.90234772  0.18231991  0.95777295    -0.34000
N444        N  0.89006620  0.17907144  0.95859446    -0.28200
C445        C  0.88285183  0.18983218  0.95543365    -0.04300
C446        C  0.89108999  0.20028910  0.95236345     0.07900
C447        C  0.90333328  0.19512356  0.95430140     0.01700
H448        H  0.87245131  0.18998593  0.95425893     0.09300
H449        H  0.91235900  0.20028780  0.95246504     0.08400
N450        N  0.88184393  0.14010746  0.96372703    -0.35400
N451        N  0.89125387  0.13151449  0.96603970    -0.27600
C452        C  0.88612181  0.11962927  0.96555981    -0.02900
C453        C  0.87289334  0.12078393  0.96266926     0.05800
C454        C  0.87052908  0.13388680  0.96161732     0.03800
H455        H  0.89164349  0.11078678  0.96640241     0.09000
H456        H  0.86124898  0.13857163  0.95924149     0.07800
N457        N  0.93390852  0.35239773  0.91960839    -0.26600
N458        N  0.93634587  0.33993319  0.92215433    -0.34500
C459        C  0.94913303  0.33807725  0.92193803     0.01700
C460        C  0.95508942  0.34993564  0.91895442     0.07800
C461        C  0.94513762  0.35883074  0.91765684    -0.05300
H462        H  0.95376402  0.32875958  0.92391427     0.08400
H463        H  0.94598175  0.36917625  0.91501568     0.09600
Cu464      Cu  0.92228869  0.32592066  0.92546754     0.44200
Cu465      Cu  0.91533439  0.35976050  0.91801099     0.42000
Cu466      Cu  0.88929339  0.33606088  0.91530119     0.43900
N467        N  0.90683379  0.31347375  0.92899160    -0.34000
N468        N  0.89470829  0.31709295  0.92503944    -0.28200
C469        C  0.88707746  0.30670362  0.92877741    -0.04300
C470        C  0.89481001  0.29605914  0.93542368     0.07900
C471        C  0.90726626  0.30072726  0.93531610     0.01700
H472        H  0.87668972  0.30688476  0.92674788     0.09300
H473        H  0.91603092  0.29521961  0.93894267     0.08400
N474        N  0.88654807  0.35584042  0.91160350    -0.35400
N475        N  0.89594353  0.36440407  0.91391577    -0.27600
C476        C  0.89082468  0.37630404  0.91337381    -0.02900
C477        C  0.87762041  0.37518208  0.91025319     0.05800
C478        C  0.87523081  0.36209783  0.90913749     0.03800
H479        H  0.89630577  0.38513510  0.91549392     0.09000
H480        H  0.86590588  0.35745904  0.90786938     0.07800
N481        N  0.10951866  0.31275704  0.91013146    -0.26600
N482        N  0.09760897  0.30937116  0.91849115    -0.34500
C483        C  0.09664362  0.29650472  0.91709525     0.01700
C484        C  0.10851903  0.29151540  0.90733970     0.07800
C485        C  0.11650583  0.30208654  0.90326338    -0.05300
H486        H  0.08793824  0.29115808  0.92293866     0.08400
H487        H  0.12659657  0.30204175  0.89575699     0.09600
Cu488      Cu  0.08312555  0.32232099  0.93070971     0.44200
Cu489      Cu  0.11537533  0.33177703  0.90941559     0.42000
Cu490      Cu  0.09138056  0.35568965  0.93988747     0.43900
N491        N  0.06968240  0.33676765  0.93772192    -0.34000
N492        N  0.07258258  0.34909000  0.94118945    -0.28200
C493        C  0.06160472  0.35598942  0.94267839    -0.04300
C494        C  0.05133276  0.34753918  0.94000668     0.07900
C495        C  0.05685052  0.33546785  0.93688619     0.01700
H496        H  0.06115300  0.36637255  0.94475074     0.09300
H497        H  0.05188499  0.32640468  0.93295608     0.08400
N498        N  0.11058704  0.35966620  0.92942398    -0.35400
N499        N  0.11898843  0.35120580  0.91642749    -0.27600
C500        C  0.13027392  0.35714589  0.91047581    -0.02900
C501        C  0.12903584  0.36993816  0.92075516     0.05800
C502        C  0.11640245  0.37115482  0.93272735     0.03800
H503        H  0.13875800  0.35244515  0.89942526     0.09000
H504        H  0.11174865  0.37973825  0.94324487     0.07800
N505        N  0.10785986  0.17438665  0.92240910    -0.26600
N506        N  0.09572513  0.17800793  0.92597946    -0.34500
C507        C  0.09507070  0.19090650  0.92580845     0.01700
C508        C  0.10738828  0.19570501  0.92195518     0.07800
C509        C  0.11529914  0.18496943  0.91974215    -0.05300
H510        H  0.08623288  0.19640664  0.92788479     0.08400
H511        H  0.12565794  0.18486022  0.91657962     0.09600
Cu512      Cu  0.08052671  0.16535835  0.92983198     0.44200
Cu513      Cu  0.11321834  0.15510510  0.92159500     0.42000
Cu514      Cu  0.08682242  0.13132365  0.92830407     0.43900
N515        N  0.06620839  0.15165820  0.93051962    -0.34000
N516        N  0.06827497  0.13910070  0.92979584    -0.28200
C517        C  0.05680202  0.13302555  0.92974763    -0.04300
C518        C  0.04712127  0.14227700  0.93033309     0.07900
C519        C  0.05350146  0.15393484  0.93097178     0.01700
H520        H  0.05560064  0.12268455  0.92894395     0.09300
H521        H  0.04920472  0.16343657  0.93182094     0.08400
N522        N  0.10638453  0.12668773  0.92558252    -0.35400
N523        N  0.11578526  0.13524685  0.92285728    -0.27600
C524        C  0.12713779  0.12901377  0.92175215    -0.02900
C525        C  0.12485306  0.11591343  0.92391471     0.05800
C526        C  0.11158516  0.11479994  0.92634817     0.03800
H527        H  0.13642662  0.13370568  0.92009751     0.09000
H528        H  0.10610095  0.10597008  0.92852208     0.07800
C529        C  0.10830274  0.23141840  0.94374640    -0.04800
C530        C  0.11433073  0.23638152  0.91145185     0.09400
C531        C  0.11916207  0.22788327  0.88409145    -0.02200
C532        C  0.11743255  0.21447141  0.88818396    -0.00400
C533        C  0.11093518  0.20952880  0.91984672    -0.04000
C534        C  0.10674602  0.21804055  0.94814655     0.03000
C535        C  0.11452153  0.25060864  0.90522252     0.09800
C536        C  0.12545519  0.23300988  0.85107625     0.35700
C537        C  0.10081969  0.21304601  0.98193007     0.39100
C538        C  0.12305050  0.25848101  0.92560201    -0.04400
C539        C  0.12165176  0.27199738  0.92464209     0.02800
C540        C  0.11168958  0.27765377  0.90324765    -0.04000
C541        C  0.10385212  0.26978231  0.88054861    -0.00200
C542        C  0.10517833  0.25629968  0.88182670    -0.02800
C543        C  0.13285396  0.25260527  0.94893703     0.36500
C544        C  0.09435766  0.27555746  0.85591100     0.40100
C545        C  0.12997660  0.27996832  0.94741038     0.39200
C546        C  0.09649521  0.24823667  0.86045961     0.36100
C547        C  0.10319546  0.24015069  0.97173298     0.36800
C548        C  0.12167025  0.20586504  0.85875985     0.40100
N549        N  0.13664440  0.28631080  0.96555852    -0.38000
N550        N  0.14062599  0.24790159  0.96769746    -0.39600
N551        N  0.08681017  0.28017577  0.83621963    -0.37300
N552        N  0.08957215  0.24178933  0.84347279    -0.39700
N553        N  0.13041251  0.23712315  0.82465851    -0.39500
N554        N  0.12503033  0.19900801  0.83522193    -0.37100
N555        N  0.09611801  0.20908378  0.00893091    -0.38200
N556        N  0.09911037  0.24715776  0.99389744    -0.39800
C557        C  0.98858119  0.36177331  0.94499667    -0.04800
C558        C  0.99630833  0.35402543  0.92169410     0.09400
C559        C  0.99051714  0.34605479  0.89472624    -0.02200
C560        C  0.97700720  0.34520210  0.89263657    -0.00400
C561        C  0.96919850  0.35229308  0.91769578    -0.04000
C562        C  0.97504491  0.36092437  0.94307375     0.03000
C563        C  0.01048399  0.35324927  0.92805147     0.09800
C564        C  0.99851153  0.33846243  0.86981301     0.35700
C565        C  0.96723726  0.36840500  0.96871677     0.39100
C566        C  0.01529937  0.34463075  0.95515018    -0.04400
C567        C  0.02865696  0.34334739  0.96046804     0.02800
C568        C  0.03733683  0.35045148  0.93803086    -0.04000
C569        C  0.03247361  0.35941606  0.91168061    -0.00200
C570        C  0.01905887  0.36074956  0.90663098    -0.02800
C571        C  0.00646124  0.33676759  0.97677533     0.36500
C572        C  0.04119128  0.36690143  0.88862688     0.40100
C573        C  0.03344491  0.33483839  0.98955968     0.39200
C574        C  0.01403855  0.36949684  0.87853064     0.36100
C575        C  0.99463358  0.37030164  0.97177262     0.36800
C576        C  0.97116793  0.33702778  0.86454233     0.40100
N577        N  0.03725844  0.32808272  0.01283132    -0.38000
N578        N  0.99939211  0.33045446  0.99380007    -0.39600
N579        N  0.04810645  0.37294177  0.87027233    -0.37300
N580        N  0.01000648  0.37640870  0.85596892    -0.39700
N581        N  0.00490792  0.33243719  0.84992080    -0.39500
N582        N  0.96651888  0.33049774  0.84214733    -0.37100
N583        N  0.96105829  0.37440603  0.98924212    -0.38200
N584        N  0.99952013  0.37709206  0.99305657    -0.39800
C585        C  0.98306007  0.13410095  0.92229489    -0.04800
C586        C  0.99153207  0.14118306  0.94513280     0.09400
C587        C  0.98653880  0.14927480  0.97326116    -0.02200
C588        C  0.97312743  0.15036114  0.97837680    -0.00400
C589        C  0.96458830  0.14349156  0.95499953    -0.04000
C590        C  0.96962200  0.13520942  0.92724872     0.03000
C591        C  0.00575824  0.14042625  0.93900061     0.09800
C592        C  0.99523375  0.15673227  0.99635981     0.35700
C593        C  0.96101453  0.12823863  0.90267839     0.39100
C594        C  0.01156988  0.14796813  0.91089505    -0.04400
C595        C  0.02505157  0.14786309  0.90645764     0.02800
C596        C  0.03288390  0.14054567  0.93098904    -0.04000
C597        C  0.02697910  0.13254282  0.95806720    -0.00200
C598        C  0.01344832  0.13247236  0.96193406    -0.02800
C599        C  0.00365983  0.15610467  0.88716194     0.36500
C600        C  0.03477235  0.12477442  0.98306116     0.40100
C601        C  0.03082146  0.15508993  0.87601088     0.39200
C602        C  0.00739410  0.12444835  0.99011833     0.36100
C603        C  0.98821879  0.12594031  0.89302911     0.36800
C604        C  0.96813385  0.15839920  0.00820947     0.40100
N605        N  0.03540026  0.16079376  0.85157376    -0.38000
N606        N  0.99733217  0.16261477  0.86835119    -0.39600
N607        N  0.04094852  0.11852460  0.00300578    -0.37300
N608        N  0.00251618  0.11807506  0.01258777    -0.39700
N609        N  0.00217015  0.16271252  0.01468927    -0.39500
N610        N  0.96413800  0.16478714  0.03202836    -0.37100
N611        N  0.95416193  0.12266098  0.88305588    -0.38200
N612        N  0.99237940  0.11950669  0.86956028    -0.39800
C613        C  0.89366164  0.23448184  0.91587643    -0.04800
C614        C  0.88558691  0.24117565  0.94090920     0.09400
C615        C  0.87795343  0.23423399  0.96660540    -0.02200
C616        C  0.87934721  0.22074114  0.96979450    -0.00400
C617        C  0.88794946  0.21409620  0.94595311    -0.04000
C618        C  0.89453133  0.22097615  0.91762620     0.03000
C619        C  0.88619507  0.25555071  0.94237673     0.09800
C620        C  0.86895774  0.24107436  0.99042327     0.35700
C621        C  0.90221495  0.21417559  0.89007221     0.39100
C622        C  0.88077523  0.26306984  0.91350822    -0.04400
C623        C  0.88323661  0.27641552  0.91175394     0.02800
C624        C  0.89089973  0.28236104  0.93943680    -0.04000
C625        C  0.89559465  0.27493007  0.96967808    -0.00200
C626        C  0.89339866  0.26155065  0.97084781    -0.02800
C627        C  0.87306072  0.25695098  0.88485089     0.36500
C628        C  0.90266281  0.28102745  0.99977401     0.40100
C629        C  0.87856099  0.28381437  0.88011609     0.39200
C630        C  0.89901436  0.25383437  0.00055255     0.36100
C631        C  0.90155080  0.24155203  0.88937455     0.36800
C632        C  0.87257632  0.21390550  0.99919091     0.40100
N633        N  0.87487517  0.28970962  0.85479788    -0.38000
N634        N  0.86693694  0.25206201  0.86192892    -0.39600
N635        N  0.90826747  0.28584639  0.02391538    -0.37300
N636        N  0.90347630  0.24762433  0.02412656    -0.39700
N637        N  0.86174564  0.24656454  0.00924731    -0.39500
N638        N  0.86720988  0.20851059  0.02285244    -0.37100
N639        N  0.90830508  0.20875321  0.86802494    -0.38200
N640        N  0.90786605  0.24720471  0.86835179    -0.39800
C641        C  0.71610915  0.97930193  0.56758930    -0.04800
C642        C  0.70527713  0.98740035  0.57119285     0.09400
C643        C  0.69511822  0.98656110  0.54521213    -0.02200
C644        C  0.69582551  0.97771097  0.51546519    -0.00400
C645        C  0.70659583  0.96945170  0.51202008    -0.04000
C646        C  0.71669917  0.97021982  0.53843414     0.03000
C647        C  0.70493874  0.99737549  0.60113312     0.09800
C648        C  0.68401045  0.99494500  0.54895556     0.35700
C649        C  0.72759208  0.96148684  0.53617148     0.39100
C650        C  0.70879663  0.01006728  0.59276324    -0.04400
C651        C  0.70886533  0.01948929  0.62094312     0.02800
C652        C  0.70482963  0.01633062  0.65749896    -0.04000
C653        C  0.70112370  0.00358856  0.66606450    -0.00200
C654        C  0.70117547  0.99411051  0.63787025    -0.02800
C655        C  0.71291470  0.01334439  0.55517617     0.36500
C656        C  0.69740233  0.00023423  0.70392657     0.40100
C657        C  0.71371890  0.03227465  0.61273808     0.39200
C658        C  0.69744964  0.98099001  0.64658367     0.36100
C659        C  0.72674197  0.98051120  0.59361057     0.36800
C660        C  0.68562361  0.97734759  0.48784117     0.40100
N661        N  0.71780414  0.04238666  0.60613064    -0.38000
N662        N  0.71617701  0.01591653  0.52514891    -0.39600
N663        N  0.69449917  0.99756106  0.73419444    -0.37300
N664        N  0.69451764  0.97050551  0.65352746    -0.39700
N665        N  0.67517113  0.00165941  0.55201938    -0.39500
N666        N  0.67749969  0.97704760  0.46575623    -0.37100
N667        N  0.73628219  0.95452409  0.53439601    -0.38200
N668        N  0.73521704  0.98156729  0.61433982    -0.39800
C669        C  0.84512719  0.09998662  0.92847364    -0.04800
C670        C  0.84470295  0.09039545  0.95639670     0.09400
C671        C  0.85360321  0.09066535  0.98609601    -0.02200
C672        C  0.86286474  0.10054635  0.98808297    -0.00400
C673        C  0.86328520  0.11023000  0.96025633    -0.04000
C674        C  0.85443570  0.10984115  0.93023886     0.03000
C675        C  0.83498150  0.07983887  0.95437646     0.09800
C676        C  0.85315302  0.08075264  0.01470053     0.35700
C677        C  0.85521337  0.11926654  0.90032711     0.39100
C678        C  0.83814968  0.06810756  0.93675747    -0.04400
C679        C  0.82912403  0.05799376  0.93574113     0.02800
C680        C  0.81692883  0.05956234  0.95252807    -0.04000
C681        C  0.81378543  0.07126554  0.97034844    -0.00200
C682        C  0.82278589  0.08140609  0.97116723    -0.02800
C683        C  0.85078478  0.06642306  0.92019396     0.36500
C684        C  0.80140654  0.07272256  0.98865609     0.40100
C685        C  0.83237373  0.04594371  0.91757103     0.39200
C686        C  0.81961484  0.09338656  0.98981228     0.36100
C687        C  0.83600672  0.09964369  0.89782354     0.36800
C688        C  0.87172535  0.10089990  0.01936529     0.40100
N689        N  0.83494221  0.03631282  0.90313034    -0.38000
N690        N  0.86090003  0.06511009  0.90716201    -0.39600
N691        N  0.79155508  0.07383251  0.00343224    -0.37300
N692        N  0.81710529  0.10294371  0.00474094    -0.39700
N693        N  0.85275158  0.07281406  0.03741957    -0.39500
N694        N  0.87879331  0.10115547  0.04433094    -0.37100
N695        N  0.85587330  0.12674900  0.87638094    -0.38200
N696        N  0.82871925  0.09937735  0.87339733    -0.39800
C697        C  0.76802246  0.02937045  0.84172228    -0.04800
C698        C  0.75780946  0.03829443  0.84443113     0.09400
C699        C  0.75769841  0.04743540  0.87352641    -0.02200
C700        C  0.76770253  0.04757354  0.90010265    -0.00400
C701        C  0.77798760  0.03871470  0.89726014    -0.04000
C702        C  0.77815426  0.02965238  0.86788746     0.03000
C703        C  0.74703211  0.03797031  0.81687936     0.09800
C704        C  0.74721085  0.05663254  0.87613456     0.35700
C705        C  0.78886535  0.02075377  0.86431876     0.39100
C706        C  0.73656879  0.02953820  0.82252931    -0.04400
C707        C  0.72625013  0.02942524  0.79701431     0.02800
C708        C  0.72655202  0.03746458  0.76517796    -0.04000
C709        C  0.73704069  0.04585042  0.75940815    -0.00200
C710        C  0.74718471  0.04622935  0.78550305    -0.02800
C711        C  0.73642901  0.02103125  0.85472815     0.36500
C712        C  0.73743447  0.05395868  0.72636141     0.40100
C713        C  0.71515399  0.02129427  0.80394737     0.39200
C714        C  0.75774250  0.05517386  0.78031485     0.36100
C715        C  0.76804268  0.01987437  0.81206095     0.36800
C716        C  0.76723070  0.05659464  0.93095710     0.40100
N717        N  0.70624019  0.01490319  0.80955242    -0.38000
N718        N  0.73636998  0.01421377  0.88035635    -0.39600
N719        N  0.73771101  0.06037366  0.69988410    -0.37300
N720        N  0.76612612  0.06237486  0.77636142    -0.39700
N721        N  0.73883993  0.06397261  0.87798436    -0.39500
N722        N  0.76679245  0.06375892  0.95565088    -0.37100
N723        N  0.79744828  0.01369909  0.86153535    -0.38200
N724        N  0.76800852  0.01226767  0.78847257    -0.39800
C725        C  0.80817393  0.98817889  0.11949776    -0.04800
C726        C  0.79944980  0.98818659  0.08930454     0.09400
C727        C  0.79026131  0.97825614  0.08614293    -0.02200
C728        C  0.78966532  0.96845512  0.11340603    -0.00400
C729        C  0.79833603  0.96848634  0.14373704    -0.04000
C730        C  0.80769342  0.97828308  0.14651321     0.03000
C731        C  0.79976730  0.99881433  0.06111670     0.09800
C732        C  0.78138541  0.97819547  0.05489217     0.35700
C733        C  0.81670726  0.97825264  0.17744871     0.39100
C734        C  0.80716477  0.99751529  0.02823235    -0.04400
C735        C  0.80723756  0.00746941  0.00134227     0.02800
C736        C  0.79985332  0.01870147  0.00721312    -0.04000
C737        C  0.79265726  0.02010287  0.04041361    -0.00200
C738        C  0.79259348  0.01016506  0.06728995    -0.02800
C739        C  0.81462127  0.98589160  0.02209561     0.36500
C740        C  0.78536576  0.03181989  0.04687002     0.40100
C741        C  0.81488941  0.00619077  0.96762956     0.39200
C742        C  0.78509187  0.01154850  0.10124656     0.36100
C743        C  0.81752020  0.99846703  0.12290605     0.36800
C744        C  0.78020739  0.95825628  0.11017805     0.40100
N745        N  0.82102327  0.00522030  0.94076567    -0.38000
N746        N  0.82054882  0.97659346  0.01729131    -0.39600
N747        N  0.77960680  0.04120929  0.05190064    -0.37300
N748        N  0.77911767  0.01262404  0.12837522    -0.39700
N749        N  0.77432380  0.97815468  0.02990138    -0.39500
N750        N  0.77268420  0.95009506  0.10774441    -0.37100
N751        N  0.82391394  0.97818083  0.20209199    -0.38200
N752        N  0.82492760  0.00672411  0.12559244    -0.39800
C753        C  0.77024525  0.95660265  0.32002393    -0.04800
C754        C  0.75799292  0.95113782  0.31401148     0.09400
C755        C  0.75510937  0.94547319  0.27917123    -0.02200
C756        C  0.76452126  0.94504170  0.25075311    -0.00400
C757        C  0.77685645  0.95025905  0.25708812    -0.04000
C758        C  0.77963822  0.95621331  0.29155484     0.03000
C759        C  0.74809538  0.95125613  0.34443508     0.09800
C760        C  0.74245691  0.94003312  0.27274835     0.35700
C761        C  0.79212699  0.96209078  0.29743085     0.39100
C762        C  0.73841116  0.96079491  0.34482412    -0.04400
C763        C  0.72871025  0.96052919  0.37244897     0.02800
C764        C  0.72864831  0.95070142  0.39990713    -0.04000
C765        C  0.73856744  0.94137476  0.40006653    -0.00200
C766        C  0.74825750  0.94165906  0.37242048    -0.02800
C767        C  0.73846415  0.97087078  0.31667577     0.36500
C768        C  0.73892887  0.93162527  0.42913720     0.40100
C769        C  0.71865211  0.97023995  0.37216217     0.39200
C770        C  0.75843227  0.93207990  0.37268402     0.36100
C771        C  0.77315285  0.96262307  0.35553723     0.36800
C772        C  0.76154007  0.93923939  0.21496513     0.40100
N773        N  0.71065191  0.97801117  0.37201221    -0.38000
N774        N  0.73855548  0.97889743  0.29418493    -0.39600
N775        N  0.73918409  0.92386967  0.45240281    -0.37300
N776        N  0.76659953  0.92448683  0.37290552    -0.39700
N777        N  0.73233736  0.93573235  0.26772629    -0.39500
N778        N  0.75916624  0.93464721  0.18635542    -0.37100
N779        N  0.80207272  0.96684419  0.30189898    -0.38200
N780        N  0.77546494  0.96740786  0.38391948    -0.39800
C781        C  0.67343563  0.07318757  0.68077645    -0.04800
C782        C  0.66737025  0.07647670  0.71472439     0.09400
C783        C  0.67059067  0.06974516  0.74773768    -0.02200
C784        C  0.67961896  0.05960094  0.74666276    -0.00400
C785        C  0.68607629  0.05657065  0.71290901    -0.04000
C786        C  0.68295154  0.06350007  0.67997795     0.03000
C787        C  0.65729878  0.08680491  0.71545846     0.09800
C788        C  0.66460375  0.07329274  0.78290524     0.35700
C789        C  0.68962877  0.06094928  0.64518363     0.39100
C790        C  0.64426973  0.08351397  0.72082493    -0.04400
C791        C  0.63479554  0.09321702  0.72292088     0.02800
C792        C  0.63807401  0.10626967  0.71602758    -0.04000
C793        C  0.65112403  0.10943427  0.70878005    -0.00200
C794        C  0.66072527  0.09981895  0.71010902    -0.02800
C795        C  0.64058460  0.07005717  0.72333181     0.36500
C796        C  0.65471886  0.12240349  0.69786647     0.40100
C797        C  0.62180114  0.08966505  0.73358762     0.39200
C798        C  0.67416729  0.10329400  0.70558225     0.36100
C799        C  0.66978634  0.07974191  0.64649213     0.36800
C800        C  0.68189903  0.05200195  0.78012113     0.40100
N801        N  0.61148035  0.08673596  0.74231443    -0.38000
N802        N  0.63769247  0.05931201  0.72498640    -0.39600
N803        N  0.65764743  0.13270143  0.68882822    -0.37300
N804        N  0.68488684  0.10604737  0.70195001    -0.39700
N805        N  0.65981617  0.07612668  0.81092736    -0.39500
N806        N  0.68370567  0.04591270  0.80674243    -0.37100
N807        N  0.69475431  0.05909299  0.61699188    -0.38200
N808        N  0.66687796  0.08499616  0.61921357    -0.39800
C809        C  0.51478310  0.13893462  0.65730956    -0.04800
C810        C  0.50960540  0.12980602  0.68240366     0.09400
C811        C  0.51790904  0.12256040  0.70546000    -0.02200
C812        C  0.53130975  0.12481914  0.70462794    -0.00400
C813        C  0.53647666  0.13432618  0.68050899    -0.04000
C814        C  0.52816605  0.14114133  0.65619982     0.03000
C815        C  0.49531668  0.12874949  0.68664162     0.09800
C816        C  0.51256466  0.11309863  0.73095432     0.35700
C817        C  0.53337712  0.15042069  0.62987443     0.39100
C818        C  0.48802231  0.12121288  0.66166246    -0.04400
C819        C  0.47443578  0.12176896  0.66253365     0.02800
C820        C  0.46814102  0.12997661  0.68814651    -0.04000
C821        C  0.47545884  0.13696403  0.71443769    -0.00200
C822        C  0.48899517  0.13621774  0.71397281    -0.02800
C823        C  0.49453763  0.11314561  0.63455655     0.36500
C824        C  0.46905426  0.14511783  0.74161946     0.40100
C825        C  0.46696634  0.11444813  0.63579087     0.39200
C826        C  0.49647427  0.14335080  0.74115260     0.36100
C827        C  0.50624360  0.14637005  0.63348336     0.36800
C828        C  0.53963738  0.11787345  0.73020786     0.40100
N829        N  0.46099156  0.10862020  0.61444032    -0.38000
N830        N  0.49975580  0.10669437  0.61297471    -0.39600
N831        N  0.46393388  0.15166116  0.76316717    -0.37300
N832        N  0.50246608  0.14894540  0.76297997    -0.39700
N833        N  0.50826393  0.10557525  0.75132356    -0.39500
N834        N  0.54626692  0.11234247  0.75069849    -0.37100
N835        N  0.53752055  0.15780908  0.60881740    -0.38200
N836        N  0.49939578  0.15229925  0.61459679    -0.39800
C837        C  0.38469229  0.25220315  0.68268139    -0.04800
C838        C  0.39260371  0.24480416  0.65893959     0.09400
C839        C  0.40084866  0.25098795  0.63330292    -0.02200
C840        C  0.40177885  0.26452591  0.63298828    -0.00400
C841        C  0.39442729  0.27198173  0.65836864    -0.04000
C842        C  0.38558590  0.26576334  0.68245214     0.03000
C843        C  0.39304080  0.23048943  0.66293299     0.09800
C844        C  0.40853360  0.24336142  0.60765307     0.35700
C845        C  0.37787620  0.27321041  0.70841194     0.39100
C846        C  0.38594912  0.22253680  0.63861168    -0.04400
C847        C  0.38702677  0.20901351  0.64129383     0.02800
C848        C  0.39531036  0.20342090  0.66813115    -0.04000
C849        C  0.40202290  0.21142165  0.69338285    -0.00200
C850        C  0.40094052  0.22490642  0.69063155    -0.02800
C851        C  0.37779865  0.22832065  0.61029055     0.36500
C852        C  0.40989295  0.20578956  0.72268965     0.40100
C853        C  0.37999757  0.20089854  0.61549102     0.39200
C854        C  0.40817260  0.23308856  0.71583777     0.36100
C855        C  0.37584173  0.24577895  0.70791426     0.36800
C856        C  0.41026664  0.27074564  0.60626966     0.40100
N857        N  0.37436664  0.19442141  0.59494614    -0.38000
N858        N  0.37134232  0.23297196  0.58762441    -0.39600
N859        N  0.41614179  0.20130023  0.74611563    -0.37300
N860        N  0.41394039  0.23962845  0.73588810    -0.39700
N861        N  0.41459711  0.23725996  0.58708921    -0.39500
N862        N  0.41706249  0.27567630  0.58497573    -0.37100
N863        N  0.37169920  0.27912086  0.72915899    -0.38200
N864        N  0.36878441  0.24059613  0.72793698    -0.39800
C865        C  0.61854658  0.25863756  0.73522369    -0.04800
C866        C  0.61240952  0.24966380  0.71164378     0.09400
C867        C  0.60540203  0.25410673  0.68038635    -0.02200
C868        C  0.60413427  0.26741659  0.67350056    -0.00400
C869        C  0.60954044  0.27646741  0.69844558    -0.04000
C870        C  0.61704256  0.27200797  0.72886130     0.03000
C871        C  0.61248753  0.23555083  0.72071126     0.09800
C872        C  0.59914254  0.24494209  0.65584237     0.35700
C873        C  0.62268797  0.28111002  0.75475132     0.39100
C874        C  0.60411749  0.23071671  0.74848839    -0.04400
C875        C  0.60254250  0.21731500  0.75306728     0.02800
C876        C  0.60922848  0.20863350  0.72966856    -0.04000
C877        C  0.61816713  0.21345818  0.70332354    -0.00200
C878        C  0.61984869  0.22688243  0.69907131    -0.02800
C879        C  0.59674763  0.23956708  0.77143455     0.36500
C880        C  0.62502905  0.20467726  0.67890158     0.40100
C881        C  0.59395729  0.21244486  0.78178942     0.39200
C882        C  0.62882087  0.23182925  0.67150900     0.36100
C883        C  0.62616887  0.25406921  0.76650176     0.36800
C884        C  0.59737493  0.27177129  0.64030907     0.40100
N885        N  0.58713837  0.20855378  0.80476434    -0.38000
N886        N  0.59090766  0.24665510  0.78975357    -0.39600
N887        N  0.63046820  0.19767467  0.65931040    -0.37300
N888        N  0.63596289  0.23579640  0.64949479    -0.39700
N889        N  0.59416254  0.23761224  0.63632209    -0.39500
N890        N  0.59201697  0.27523920  0.61378005    -0.37100
N891        N  0.62719311  0.28834765  0.77550303    -0.38200
N892        N  0.63224422  0.25039888  0.79145136    -0.39800
C893        C  0.51531837  0.35621873  0.63354627    -0.04800
C894        C  0.50764701  0.35165625  0.66332787     0.09400
C895        C  0.51360784  0.34689945  0.69598566    -0.02200
C896        C  0.52713404  0.34586404  0.69780429    -0.00400
C897        C  0.53480072  0.34961785  0.66699249    -0.04000
C898        C  0.52886495  0.35520100  0.63532733     0.03000
C899        C  0.49337505  0.35038986  0.65857796     0.09800
C900        C  0.50577697  0.34269036  0.72727985     0.35700
C901        C  0.53661222  0.35920030  0.60365376     0.39100
C902        C  0.48844177  0.33988966  0.63819043    -0.04400
C903        C  0.47504831  0.33812627  0.63489388     0.02800
C904        C  0.46640609  0.34667257  0.65284900    -0.04000
C905        C  0.47136404  0.35738589  0.67252336    -0.00200
C906        C  0.48481403  0.35926895  0.67514831    -0.02800
C907        C  0.49721904  0.33071222  0.62119529     0.36500
C908        C  0.46269711  0.36615196  0.69157069     0.40100
C909        C  0.47020683  0.32758979  0.61235722     0.39200
C910        C  0.48988651  0.37021960  0.69538953     0.36100
C911        C  0.50918735  0.36154165  0.60054404     0.36800
C912        C  0.53317151  0.34086742  0.73139999     0.40100
N913        N  0.46638030  0.31918752  0.59432807    -0.38000
N914        N  0.50425664  0.32341661  0.60773786    -0.39600
N915        N  0.45578683  0.37314331  0.70682696    -0.37300
N916        N  0.49394254  0.37895850  0.71154578    -0.39700
N917        N  0.49952341  0.33939059  0.75229947    -0.39500
N918        N  0.53800866  0.33689036  0.75817522    -0.37100
N919        N  0.54277497  0.36237463  0.57830929    -0.38200
N920        N  0.50423866  0.36576750  0.57426760    -0.39800
C921        C  0.10589898  0.72953541  0.15537579    -0.04800
C922        C  0.11242742  0.73547689  0.18521323     0.09400
C923        C  0.11875327  0.72785018  0.21219492    -0.02200
C924        C  0.11768750  0.71430361  0.21104402    -0.00400
C925        C  0.11033684  0.70836018  0.18265022    -0.04000
C926        C  0.10495454  0.71602097  0.15386364     0.03000
C927        C  0.11138383  0.74972290  0.19009046     0.09800
C928        C  0.12595445  0.73400261  0.24187388     0.35700
C929        C  0.09846101  0.71002252  0.12252619     0.39100
C930        C  0.10069840  0.75484333  0.20931153    -0.04400
C931        C  0.09871356  0.76825837  0.21055494     0.02800
C932        C  0.10743901  0.77669572  0.19248747    -0.04000
C933        C  0.11850915  0.77153263  0.17481760    -0.00200
C934        C  0.12043666  0.75806984  0.17357895    -0.02800
C935        C  0.09162055  0.74621225  0.22734453     0.36500
C936        C  0.12764825  0.77997194  0.15640474     0.40100
C937        C  0.08775365  0.77331587  0.23100702     0.39200
C938        C  0.13156838  0.75274162  0.15460031     0.36100
C939        C  0.09975377  0.73740300  0.12693672     0.36800
C940        C  0.12352769  0.70659849  0.24033926     0.40100
N941        N  0.07898158  0.77729079  0.24730258    -0.38000
N942        N  0.08443002  0.73927791  0.24168767    -0.39600
N943        N  0.13497690  0.78668509  0.14176225    -0.37300
N944        N  0.14045202  0.74846472  0.13950967    -0.39700
N945        N  0.13173403  0.73891703  0.26549223    -0.39500
N946        N  0.12819925  0.70045424  0.26371564    -0.37100
N947        N  0.09330504  0.70525729  0.09746757    -0.38200
N948        N  0.09483999  0.74371131  0.10436420    -0.39800
C949        C  0.98999543  0.64311304  0.20054819    -0.04800
C950        C  0.99525897  0.63330079  0.17805318     0.09400
C951        C  0.98705913  0.62476755  0.15894291    -0.02200
C952        C  0.97358258  0.62631114  0.16125169    -0.00400
C953        C  0.96826064  0.63634561  0.18310500    -0.04000
C954        C  0.97655800  0.64462055  0.20322013     0.03000
C955        C  0.00948130  0.63265112  0.17253783     0.09800
C956        C  0.99255635  0.61455473  0.13638914     0.35700
C957        C  0.97133743  0.65461182  0.22719187     0.39100
C958        C  0.01725231  0.62532721  0.19695534    -0.04400
C959        C  0.03079280  0.62605667  0.19432225     0.02800
C960        C  0.03653741  0.63429598  0.16764787    -0.04000
C961        C  0.02871772  0.64096593  0.14175060    -0.00200
C962        C  0.01522819  0.64015529  0.14423030    -0.02800
C963        C  0.01127459  0.61746647  0.22564498     0.36500
C964        C  0.03457507  0.64870934  0.11254286     0.40100
C965        C  0.03876520  0.61880189  0.22012496     0.39200
C966        C  0.00721074  0.64739354  0.11845491     0.36100
C967        C  0.99847076  0.65177533  0.22062532     0.36800
C968        C  0.96527143  0.61796455  0.13960753     0.40100
N969        N  0.04510849  0.61295894  0.24065341    -0.38000
N970        N  0.00646106  0.61123224  0.24855871    -0.39600
N971        N  0.03926949  0.65485012  0.08921265    -0.37300
N972        N  0.00078741  0.65316820  0.09797963    -0.39700
N973        N  0.99699333  0.60639899  0.11851481    -0.39500
N974        N  0.95867178  0.61131340  0.12219742    -0.37100
N975        N  0.96719039  0.66261708  0.24619752    -0.38200
N976        N  0.00523148  0.65867852  0.23662668    -0.39800
C977        C  0.85485713  0.89899555  0.17877329    -0.04800
C978        C  0.84422220  0.89807834  0.20317501     0.09400
C979        C  0.84312970  0.88739808  0.22740609    -0.02200
C980        C  0.85263575  0.87767815  0.22730422    -0.00400
C981        C  0.86323208  0.87848766  0.20251636    -0.04000
C982        C  0.86426433  0.88919315  0.17815886     0.03000
C983        C  0.83411338  0.90836504  0.20312716     0.09800
C984        C  0.83219035  0.88643854  0.25248580     0.35700
C985        C  0.87474438  0.88994451  0.15141229     0.39100
C986        C  0.82491865  0.90888341  0.17412537    -0.04400
C987        C  0.81549159  0.91867336  0.17376852     0.02800
C988        C  0.81530164  0.92809251  0.20219555    -0.04000
C989        C  0.82451620  0.92757653  0.23116586    -0.00200
C990        C  0.83384001  0.91769250  0.23175763    -0.02800
C991        C  0.82522180  0.89934493  0.14457249     0.36500
C992        C  0.82464638  0.93746001  0.25974950     0.40100
C993        C  0.80586912  0.91896006  0.14442171     0.39200
C994        C  0.84326845  0.91718548  0.26159755     0.36100
C995        C  0.85609589  0.91007013  0.15423920     0.36800
C996        C  0.85167167  0.86706854  0.25361161     0.40100
N997        N  0.79817719  0.91919012  0.12105434    -0.38000
N998        N  0.82555475  0.89176652  0.12092308    -0.39600
N999        N  0.82476337  0.94537765  0.28245296    -0.37300
N1000       N  0.85075766  0.91673033  0.28548618    -0.39700
N1001       N  0.82347651  0.88571026  0.27254636    -0.39500
N1002       N  0.85089059  0.85861981  0.27464238    -0.37100
N1003       N  0.88308440  0.89053963  0.13001360    -0.38200
N1004       N  0.85705753  0.91890161  0.13465570    -0.39800
C1005       C  0.98488922  0.85449138  0.24157129    -0.04800
C1006       C  0.99252391  0.85085698  0.21073555     0.09400
C1007       C  0.98663645  0.84644389  0.17766058    -0.02200
C1008       C  0.97316044  0.84529732  0.17578290    -0.00400
C1009       C  0.96552347  0.84851158  0.20704733    -0.04000
C1010       C  0.97138150  0.85334122  0.23971812     0.03000
C1011       C  0.00683881  0.85082617  0.21346909     0.09800
C1012       C  0.99452352  0.84269891  0.14598331     0.35700
C1013       C  0.96356076  0.85654399  0.27198847     0.39100
C1014       C  0.01318906  0.83994324  0.22814404    -0.04400
C1015       C  0.02668570  0.83903636  0.22615778     0.02800
C1016       C  0.03389621  0.84881483  0.20814171    -0.04000
C1017       C  0.02754739  0.86010870  0.19564503    -0.00200
C1018       C  0.01403815  0.86111543  0.19856056    -0.02800
C1019       C  0.00576098  0.82947396  0.24420527     0.36500
C1020       C  0.03474546  0.87046883  0.17825393     0.40100
C1021       C  0.03312174  0.82811712  0.24337213     0.39200
C1022       C  0.00744169  0.87256206  0.18525478     0.36100
C1023       C  0.99099058  0.85902282  0.27549968     0.36800
C1024       C  0.96714574  0.84077465  0.14167779     0.40100
N1025       N  0.03824862  0.81942763  0.25720851    -0.38000
N1026       N  0.99982602  0.82111592  0.25690192    -0.39600
N1027       N  0.04042865  0.87879890  0.16446067    -0.37300
N1028       N  0.00212982  0.88168303  0.17476457    -0.39700
N1029       N  0.00086813  0.83970150  0.12085428    -0.39500
N1030       N  0.96235900  0.83719533  0.11442919    -0.37100
N1031       N  0.95730300  0.85906720  0.29773304    -0.38200
N1032       N  0.99588176  0.86259778  0.30259466    -0.39800
C1033       C  0.88140976  0.72595447  0.18940950    -0.04800
C1034       C  0.88968434  0.73387731  0.21044316     0.09400
C1035       C  0.89902281  0.72825274  0.23396288    -0.02200
C1036       C  0.90036336  0.71476188  0.23556281    -0.00400
C1037       C  0.89255605  0.70679773  0.21297535    -0.04000
C1038       C  0.88283268  0.71243341  0.19062331     0.03000
C1039       C  0.88926119  0.74818159  0.20599776     0.09800
C1040       C  0.90760307  0.73640848  0.25539558     0.35700
C1041       C  0.87476399  0.70441668  0.16724912     0.39100
C1042       C  0.88280373  0.75590379  0.23247721    -0.04400
C1043       C  0.88362974  0.76945507  0.23029635     0.02800
C1044       C  0.89114468  0.77528065  0.20202892    -0.04000
C1045       C  0.89698794  0.76753816  0.17435781    -0.00200
C1046       C  0.89605585  0.75403263  0.17636433    -0.02800
C1047       C  0.87569005  0.74985453  0.26263445     0.36500
C1048       C  0.90392430  0.77349293  0.14363908     0.40100
C1049       C  0.87719148  0.77734781  0.25800746     0.39200
C1050       C  0.90242500  0.74611261  0.14855273     0.36100
C1051       C  0.87177641  0.73179274  0.16542410     0.36800
C1052       C  0.90978301  0.70908438  0.26062220     0.40100
N1053       N  0.87199298  0.78364068  0.28002328    -0.38000
N1054       N  0.87006904  0.74499455  0.28676284    -0.39600
N1055       N  0.90941948  0.77828418  0.11914963    -0.37300
N1056       N  0.90749213  0.73979131  0.12635515    -0.39700
N1057       N  0.91447018  0.74293928  0.27230857    -0.39500
N1058       N  0.91727670  0.70456932  0.28068521    -0.37100
N1059       N  0.86831901  0.69803918  0.14854028    -0.38200
N1060       N  0.86414113  0.73650325  0.14621211    -0.39800
C1061       C  0.67849754  0.40732110  0.66297805    -0.04800
C1062       C  0.66669551  0.40906604  0.68190262     0.09400
C1063       C  0.66458216  0.42036745  0.70289016    -0.02200
C1064       C  0.67425211  0.42985116  0.70511208    -0.00400
C1065       C  0.68597807  0.42818904  0.68577572    -0.04000
C1066       C  0.68810816  0.41688630  0.66480158     0.03000
C1067       C  0.65650853  0.39891614  0.67997785     0.09800
C1068       C  0.65238106  0.42227599  0.72180039     0.35700
C1069       C  0.70020974  0.41510563  0.64522769     0.39100
C1070       C  0.65587943  0.38926581  0.70767633    -0.04400
C1071       C  0.64635111  0.37961896  0.70583021     0.02800
C1072       C  0.63738356  0.37950988  0.67602576    -0.04000
C1073       C  0.63802515  0.38926658  0.64836122    -0.00200
C1074       C  0.64753965  0.39893517  0.65043447    -0.02800
C1075       C  0.66506031  0.38932531  0.73820277     0.36500
C1076       C  0.62919196  0.38916963  0.61699849     0.40100
C1077       C  0.64557054  0.37007335  0.73540734     0.39200
C1078       C  0.64817407  0.40892744  0.62209508     0.36100
C1079       C  0.68068748  0.39568228  0.64154798     0.36800
C1080       C  0.67218089  0.44134222  0.72731184     0.40100
N1081       N  0.64497343  0.36246931  0.75904198    -0.38000
N1082       N  0.67239095  0.38940688  0.76253119    -0.39600
N1083       N  0.62216653  0.38912689  0.59191618    -0.37300
N1084       N  0.64872026  0.41692314  0.59956843    -0.39700
N1085       N  0.64261514  0.42380737  0.73673835    -0.39500
N1086       N  0.67061754  0.45050274  0.74512281    -0.37100
N1087       N  0.70987361  0.41368898  0.62964282    -0.38200
N1088       N  0.68238107  0.38638064  0.62446344    -0.39800
C1089       C  0.69751028  0.49753209  0.51675022    -0.04800
C1090       C  0.70552580  0.49868345  0.54839378     0.09400
C1091       C  0.71354274  0.50957299  0.55220360    -0.02200
C1092       C  0.71367167  0.51916116  0.52419034    -0.00400
C1093       C  0.70542961  0.51812482  0.49298294    -0.04000
C1094       C  0.69735145  0.50729516  0.48935600     0.03000
C1095       C  0.70553101  0.48831946  0.57751569     0.09800
C1096       C  0.72158246  0.51092099  0.58506913     0.35700
C1097       C  0.68915153  0.50601625  0.45680425     0.39100
C1098       C  0.71557147  0.47914527  0.57859229    -0.04400
C1099       C  0.71531232  0.46909537  0.60516643     0.02800
C1100       C  0.70506327  0.46822685  0.63101592    -0.04000
C1101       C  0.69495019  0.47733122  0.62965656    -0.00200
C1102       C  0.69521835  0.48737763  0.60308590    -0.02800
C1103       C  0.72610038  0.47999511  0.55205634     0.36500
C1104       C  0.68430599  0.47641443  0.65579276     0.40100
C1105       C  0.72537594  0.45938975  0.60518749     0.39200
C1106       C  0.68490529  0.49680875  0.60203609     0.36100
C1107       C  0.68957766  0.48616502  0.51213754     0.36800
C1108       C  0.72236904  0.53002566  0.52720635     0.40100
N1109       N  0.73334558  0.45158765  0.60517389    -0.38000
N1110       N  0.73451671  0.48072003  0.53094985    -0.39600
N1111       N  0.67578545  0.47562765  0.67652476    -0.37300
N1112       N  0.67668700  0.50433966  0.60102053    -0.39700
N1113       N  0.72796771  0.51199762  0.61135854    -0.39500
N1114       N  0.72937719  0.53864414  0.52938032    -0.37100
N1115       N  0.68263473  0.50495928  0.43079361    -0.38200
N1116       N  0.68327345  0.47707714  0.50850703    -0.39800
C1117       C  0.82864013  0.57433537  0.18572978    -0.04800
C1118       C  0.83896975  0.57273303  0.21090397     0.09400
C1119       C  0.83963584  0.56161930  0.23361039    -0.02200
C1120       C  0.82998042  0.55213704  0.23119570    -0.00400
C1121       C  0.81970710  0.55371937  0.20589063    -0.04000
C1122       C  0.81902844  0.56483459  0.18319952     0.03000
C1123       C  0.84922558  0.58274942  0.21316764     0.09800
C1124       C  0.85030859  0.55995068  0.25924984     0.35700
C1125       C  0.80837743  0.56650212  0.15740883     0.39100
C1126       C  0.84874676  0.59222389  0.24128471    -0.04400
C1127       C  0.85822197  0.60191111  0.24270510     0.02800
C1128       C  0.86812603  0.60230459  0.21556547    -0.04000
C1129       C  0.86869073  0.59263478  0.18775822    -0.00200
C1130       C  0.85929951  0.58285650  0.18676455    -0.02800
C1131       C  0.83844441  0.59200226  0.26867094     0.36500
C1132       C  0.87863808  0.59292665  0.15929190     0.40100
C1133       C  0.85799551  0.61121306  0.27289303     0.39200
C1134       C  0.85991466  0.57289222  0.15843848     0.36100
C1135       C  0.82791692  0.58578766  0.16252122     0.36800
C1136       C  0.83056157  0.54076307  0.25472197     0.40100
N1137       N  0.85785454  0.61860018  0.29706267    -0.38000
N1138       N  0.83022608  0.59180163  0.29051714    -0.39600
N1139       N  0.88655957  0.59309762  0.13653151    -0.37300
N1140       N  0.86035991  0.56491107  0.13594807    -0.39700
N1141       N  0.85884453  0.55866037  0.27967861    -0.39500
N1142       N  0.83097701  0.53167851  0.27347924    -0.37100
N1143       N  0.79986302  0.56780480  0.13690347    -0.38200
N1144       N  0.82736219  0.59492078  0.14399032    -0.39800
C1145       C  0.76792444  0.52904721  0.30620133    -0.04800
C1146       C  0.75673943  0.53628934  0.29850573     0.09400
C1147       C  0.75587762  0.54358837  0.26528673    -0.02200
C1148       C  0.76620677  0.54362991  0.23974215    -0.00400
C1149       C  0.77741048  0.53644396  0.24758652    -0.04000
C1150       C  0.77829039  0.52920184  0.28090215     0.03000
C1151       C  0.74605309  0.53657953  0.32623939     0.09800
C1152       C  0.74442330  0.55115967  0.25776484     0.35700
C1153       C  0.78994188  0.52202574  0.28926331     0.39100
C1154       C  0.74681469  0.54490557  0.35725186    -0.04400
C1155       C  0.73694870  0.54493692  0.38421215     0.02800
C1156       C  0.72619076  0.53682543  0.37978687    -0.04000
C1157       C  0.72537824  0.52855227  0.34867158    -0.00200
C1158       C  0.73536540  0.52834945  0.32204813    -0.02800
C1159       C  0.75779362  0.55340029  0.36133819     0.36500
C1160       C  0.71424678  0.52028250  0.34415942     0.40100
C1161       C  0.73794932  0.55314333  0.41682692     0.39200
C1162       C  0.73475178  0.51959350  0.29058611     0.36100
C1163       C  0.76874463  0.52149018  0.34027293     0.36800
C1164       C  0.76541755  0.55117365  0.20566821     0.40100
N1165       N  0.73880144  0.55963114  0.44295655    -0.38000
N1166       N  0.76657324  0.56015745  0.36443480    -0.39600
N1167       N  0.70533254  0.51372449  0.34069983    -0.37300
N1168       N  0.73428848  0.51258606  0.26552143    -0.39700
N1169       N  0.73526709  0.55719501  0.25189876    -0.39500
N1170       N  0.76482578  0.55720388  0.17848463    -0.37100
N1171       N  0.79927421  0.51636928  0.29591197    -0.38200
N1172       N  0.76936075  0.51547698  0.36748374    -0.39800
C1173       C  0.82639931  0.41117151  0.92868669    -0.04800
C1174       C  0.83851851  0.41508241  0.91502452     0.09400
C1175       C  0.84041914  0.42797634  0.90377907    -0.02200
C1176       C  0.83015900  0.43689289  0.90569938    -0.00400
C1177       C  0.81803210  0.43298493  0.91949545    -0.04000
C1178       C  0.81622430  0.42011065  0.93125985     0.03000
C1179       C  0.84923301  0.40548682  0.91268062     0.09800
C1180       C  0.85297866  0.43206257  0.89070193     0.35700
C1181       C  0.80400656  0.41616349  0.94725566     0.39100
C1182       C  0.85054848  0.39769790  0.88064362    -0.04400
C1183       C  0.85996094  0.38789759  0.87960076     0.02800
C1184       C  0.86799215  0.38573820  0.91081902    -0.04000
C1185       C  0.86671699  0.39359673  0.94279790    -0.00200
C1186       C  0.85746733  0.40355104  0.94351730    -0.02800
C1187       C  0.84207494  0.39970132  0.84896798     0.36500
C1188       C  0.87447828  0.39102843  0.97567552     0.40100
C1189       C  0.86149830  0.38014973  0.84621050     0.26400
C1190       C  0.85626855  0.41170875  0.97618454     0.36100
C1191       C  0.82448431  0.39793547  0.94051080     0.36800
C1192       C  0.83201823  0.45005448  0.89321871     0.40100
N1193       N  0.86275615  0.37399598  0.81952504    -0.38000
N1194       N  0.83527547  0.40131815  0.82378718    -0.39600
N1195       N  0.88060345  0.38888723  0.00197145    -0.37300
N1196       N  0.85534558  0.41826185  0.00216980    -0.39700
N1197       N  0.86303149  0.43532489  0.88047667    -0.39500
N1198       N  0.83345612  0.46056261  0.88322566    -0.37100
N1199       N  0.79427575  0.41305005  0.96016220    -0.38200
N1200       N  0.82301728  0.38736396  0.94987806    -0.39800
C1201       C  0.75202055  0.44553064  0.86745023    -0.04800
C1202       C  0.75390735  0.45055063  0.83116744     0.09400
C1203       C  0.76603484  0.45555257  0.82103416    -0.02200
C1204       C  0.77634741  0.45515733  0.84659927    -0.00400
C1205       C  0.77457862  0.44983716  0.88266539    -0.04000
C1206       C  0.76231245  0.44522871  0.89322284     0.03000
C1207       C  0.74334608  0.44995208  0.80277732     0.09800
C1208       C  0.76787033  0.46108950  0.78415606     0.35700
C1209       C  0.76035909  0.43993631  0.93031668     0.39100
C1210       C  0.73398129  0.45978696  0.80067927    -0.04400
C1211       C  0.72432941  0.45934516  0.77294105     0.02800
C1212       C  0.72400683  0.44905220  0.74711644    -0.04000
C1213       C  0.73334893  0.43917433  0.74948355    -0.00200
C1214       C  0.74296954  0.43963261  0.77721229    -0.02800
C1215       C  0.73437693  0.47040944  0.82688812     0.36500
C1216       C  0.73329798  0.42871518  0.72266487     0.40100
C1217       C  0.71464252  0.46941142  0.77120089     0.39200
C1218       C  0.75263140  0.42955405  0.77925755     0.36100
C1219       C  0.73950885  0.44052591  0.87796735     0.36800
C1220       C  0.78876594  0.46039609  0.83593661     0.40100
N1221       N  0.70691266  0.47743625  0.76968019    -0.38000
N1222       N  0.73469402  0.47888282  0.84782190    -0.39600
N1223       N  0.73322418  0.42037685  0.70126028    -0.37300
N1224       N  0.76038105  0.42155568  0.78095834    -0.39700
N1225       N  0.76929165  0.46552217  0.75474137    -0.39500
N1226       N  0.79868566  0.46454909  0.82750016    -0.37100
N1227       N  0.75880679  0.43574785  0.95997396    -0.38200
N1228       N  0.72949994  0.43655390  0.88623629    -0.39800
C1229       C  0.80582630  0.47510560  0.05487238    -0.04800
C1230       C  0.79936769  0.48704040  0.05215352     0.09400
C1231       C  0.79213855  0.48981403  0.01968670    -0.02200
C1232       C  0.79224434  0.48122267  0.98923089    -0.00400
C1233       C  0.79776004  0.46875581  0.99307247    -0.04000
C1234       C  0.80408958  0.46563482  0.02714554     0.03000
C1235       C  0.80017480  0.49671009  0.08328223     0.09800
C1236       C  0.78454281  0.50154606  0.01751617     0.35700
C1237       C  0.80840532  0.45259394  0.03484871     0.39100
C1238       C  0.80544066  0.50904177  0.07660599    -0.04400
C1239       C  0.80475749  0.51864313  0.10431324     0.02800
C1240       C  0.80045708  0.51554179  0.14086289    -0.04000
C1241       C  0.79635648  0.50277296  0.14846144    -0.00200
C1242       C  0.79543031  0.49370584  0.11930277    -0.02800
C1243       C  0.81159090  0.51188397  0.04109343     0.36500
C1244       C  0.79338779  0.49875811  0.18639745     0.40100
C1245       C  0.80787650  0.53182287  0.09424380     0.39200
C1246       C  0.78934896  0.48135618  0.12633363     0.36100
C1247       C  0.81452447  0.47265744  0.08582635     0.36800
C1248       C  0.78721525  0.48563305  0.95359110     0.40100
N1249       N  0.81032300  0.54232739  0.08605166    -0.38000
N1250       N  0.81651105  0.51414476  0.01280700    -0.39600
N1251       N  0.79104971  0.49552254  0.21662335    -0.37300
N1252       N  0.78451061  0.47150710  0.13195627    -0.39700
N1253       N  0.77848340  0.51089305  0.01582098    -0.39500
N1254       N  0.78322810  0.48920085  0.92519524    -0.37100
N1255       N  0.81183928  0.44220707  0.04121365    -0.38200
N1256       N  0.82153367  0.47077588  0.11036734    -0.39800
C1257       C  0.66336741  0.56252942  0.41606070    -0.04800
C1258       C  0.66632804  0.57548319  0.42421067     0.09400
C1259       C  0.67905524  0.57891417  0.43359951    -0.02200
C1260       C  0.68873388  0.56940526  0.43543232    -0.00400
C1261       C  0.68569021  0.55636683  0.42851415    -0.04000
C1262       C  0.67299998  0.55297588  0.41844640     0.03000
C1263       C  0.65590917  0.58544133  0.42442125     0.09800
C1264       C  0.68213513  0.59222317  0.44190912     0.35700
C1265       C  0.66989779  0.53970515  0.40977604     0.39100
C1266       C  0.64743006  0.58623200  0.45516132    -0.04400
C1267       C  0.63766151  0.59566777  0.45583953     0.02800
C1268       C  0.63629964  0.60438155  0.42571482    -0.04000
C1269       C  0.64485681  0.60363808  0.39503477    -0.00200
C1270       C  0.65461190  0.59416474  0.39436126    -0.02800
C1271       C  0.64894043  0.57743988  0.48643129     0.36500
C1272       C  0.64350674  0.61248484  0.36384388     0.40100
C1273       C  0.62939380  0.59677023  0.48836766     0.39200
C1274       C  0.66333944  0.59336793  0.36277812     0.36100
C1275       C  0.65038864  0.55907874  0.40507725     0.36800
C1276       C  0.70180531  0.57301992  0.44498689     0.40100
N1277       N  0.62284674  0.59769064  0.51441168    -0.38000
N1278       N  0.65018398  0.57039328  0.51127352    -0.39600
N1279       N  0.64244514  0.61954874  0.33896729    -0.37300
N1280       N  0.67034251  0.59274424  0.33767273    -0.39700
N1281       N  0.68459201  0.60284593  0.44847890    -0.39500
N1282       N  0.71224521  0.57590997  0.45241412    -0.37100
N1283       N  0.66734857  0.52914264  0.40273487    -0.38200
N1284       N  0.64002755  0.55636375  0.39628048    -0.39800
C1285       C  0.51394035  0.62767717  0.46517354    -0.04800
C1286       C  0.50659994  0.63462528  0.43879442     0.09400
C1287       C  0.51288609  0.64183369  0.41077253    -0.02200
C1288       C  0.52643764  0.64248220  0.40994215    -0.00400
C1289       C  0.53381390  0.63618334  0.43773693    -0.04000
C1290       C  0.52751549  0.62853987  0.46490590     0.03000
C1291       C  0.49225144  0.63531441  0.44222560     0.09800
C1292       C  0.50535135  0.64889862  0.38341558     0.35700
C1293       C  0.53491487  0.62216632  0.49389704     0.39100
C1294       C  0.48661710  0.64525817  0.46345365    -0.04400
C1295       C  0.47314421  0.64684605  0.46396648     0.02800
C1296       C  0.46515813  0.63860486  0.44268882    -0.04000
C1297       C  0.47079384  0.62813119  0.42331816    -0.00200
C1298       C  0.48431620  0.62654102  0.42301382    -0.02800
C1299       C  0.49476889  0.65405804  0.48413322     0.36500
C1300       C  0.46280245  0.61927621  0.40240400     0.40100
C1301       C  0.46752100  0.65688200  0.48698701     0.39200
C1302       C  0.49013750  0.61609373  0.40211779     0.36100
C1303       C  0.50745248  0.61994038  0.49319303     0.36800
C1304       C  0.53279280  0.64956442  0.38020701     0.40100
N1305       N  0.46305542  0.66487692  0.50541306    -0.38000
N1306       N  0.50130412  0.66106517  0.50053757    -0.39600
N1307       N  0.45645540  0.61214040  0.38583700    -0.37300
N1308       N  0.49481057  0.60776189  0.38547086    -0.39700
N1309       N  0.49932197  0.65456798  0.36171705    -0.39500
N1310       N  0.53786932  0.65516558  0.35641038    -0.37100
N1311       N  0.54079905  0.61712301  0.51717078    -0.38200
N1312       N  0.50222606  0.61374199  0.51541062    -0.39800
C1313       C  0.64731851  0.90215082  0.44542025    -0.04800
C1314       C  0.65997102  0.89913665  0.45691159     0.09400
C1315       C  0.66283927  0.88643468  0.46843368    -0.02200
C1316       C  0.65313068  0.87690501  0.46896907    -0.00400
C1317       C  0.64057308  0.87969653  0.45545218    -0.04000
C1318       C  0.63785950  0.89241940  0.44306903     0.03000
C1319       C  0.67029443  0.90931616  0.45619067     0.09800
C1320       C  0.67583452  0.88315591  0.47997349     0.35700
C1321       C  0.62555371  0.89553280  0.42617333     0.39100
C1322       C  0.67593387  0.91371053  0.48971102    -0.04400
C1323       C  0.68592933  0.92289917  0.48874020     0.02800
C1324       C  0.68940267  0.92897326  0.45460973    -0.04000
C1325       C  0.68334424  0.92489442  0.42117352    -0.00200
C1326       C  0.67438313  0.91467760  0.42183136    -0.02800
C1327       C  0.67128612  0.90895836  0.52541227     0.36500
C1328       C  0.68583273  0.93150660  0.38614044     0.40100
C1329       C  0.69286483  0.92576021  0.52292922     0.39200
C1330       C  0.66937543  0.90962581  0.38698164     0.36100
C1331       C  0.64397956  0.91538734  0.43646588     0.36800
C1332       C  0.65609645  0.86440807  0.48500143     0.40100
N1333       N  0.69841585  0.92804242  0.55014588    -0.38000
N1334       N  0.66756772  0.90521360  0.55392369    -0.39600
N1335       N  0.68776253  0.93678720  0.35817479    -0.37300
N1336       N  0.66540113  0.90554676  0.35922986    -0.39700
N1337       N  0.68617582  0.88058649  0.48944557    -0.39500
N1338       N  0.65856614  0.85448784  0.49798623    -0.37100
N1339       N  0.61580463  0.89812059  0.41241405    -0.38200
N1340       N  0.64135165  0.92596219  0.42953322    -0.39800
C1341       C  0.61819484  0.75741736  0.41337585    -0.04800
C1342       C  0.61335580  0.74907427  0.44123691     0.09400
C1343       C  0.60782193  0.75432231  0.47388654    -0.02200
C1344       C  0.60691510  0.76778044  0.47836484    -0.00400
C1345       C  0.61107101  0.77617963  0.44954348    -0.04000
C1346       C  0.61682928  0.77090599  0.41711656     0.03000
C1347       C  0.61332727  0.73475010  0.43562372     0.09800
C1348       C  0.60275049  0.74582996  0.50261079     0.35700
C1349       C  0.62065854  0.77924779  0.38653449     0.39100
C1350       C  0.62143506  0.72672940  0.45720960    -0.04400
C1351       C  0.61988486  0.71320883  0.45639143     0.02800
C1352       C  0.61027740  0.70763085  0.43359589    -0.04000
C1353       C  0.60305501  0.71563009  0.40934149    -0.00200
C1354       C  0.60442834  0.72912350  0.41076774    -0.02800
C1355       C  0.63113602  0.73246951  0.48103809     0.36500
C1356       C  0.59432575  0.70996850  0.38235082     0.40100
C1357       C  0.62781553  0.70516079  0.48025941     0.39200
C1358       C  0.59637819  0.73724123  0.38739330     0.36100
C1359       C  0.62440221  0.75206851  0.38056328     0.36800
C1360       C  0.60181329  0.77293662  0.51303052     0.40100
N1361       N  0.63421259  0.69878628  0.49926687    -0.38000
N1362       N  0.63884567  0.73709904  0.50005148    -0.39600
N1363       N  0.58742356  0.70542673  0.36072027    -0.37300
N1364       N  0.58999484  0.74370089  0.36859727    -0.39700
N1365       N  0.59872851  0.73904472  0.52549730    -0.39500
N1366       N  0.59774710  0.77701770  0.54071164    -0.37100
N1367       N  0.62364251  0.78587196  0.36196747    -0.38200
N1368       N  0.62935461  0.74776989  0.35442003    -0.39800
C1369       C  0.48909350  0.84566485  0.50218397    -0.04800
C1370       C  0.49624743  0.85259696  0.47533602     0.09400
C1371       C  0.48973234  0.85942463  0.44688688    -0.02200
C1372       C  0.47617405  0.85886980  0.44429978    -0.00400
C1373       C  0.46899759  0.85168821  0.47069140    -0.04000
C1374       C  0.47553734  0.84526001  0.50001992     0.03000
C1375       C  0.51066446  0.85173842  0.47519070     0.09800
C1376       C  0.49705917  0.86672451  0.41961694     0.35700
C1377       C  0.46834087  0.83813473  0.52799824     0.39100
C1378       C  0.51687040  0.84337255  0.44988191    -0.04400
C1379       C  0.53037388  0.84201851  0.45048622     0.02800
C1380       C  0.53780675  0.84872237  0.47726966    -0.04000
C1381       C  0.53158182  0.85713995  0.50253320    -0.00200
C1382       C  0.51807551  0.85877911  0.50110997    -0.02800
C1383       C  0.50928491  0.83593361  0.42362761     0.36500
C1384       C  0.53896176  0.86358429  0.53131333     0.40100
C1385       C  0.53659617  0.83384214  0.42300272     0.39200
C1386       C  0.51174573  0.86759740  0.52657977     0.36100
C1387       C  0.49574553  0.83859902  0.53141101     0.36800
C1388       C  0.46973442  0.86494692  0.41292206     0.40100
N1389       N  0.54153830  0.82732100  0.40104948    -0.38000
N1390       N  0.50320500  0.83000403  0.40277130    -0.39600
N1391       N  0.54483804  0.86864091  0.55447748    -0.37300
N1392       N  0.50667276  0.87464337  0.54684683    -0.39700
N1393       N  0.50292757  0.87252526  0.39785405    -0.39500
N1394       N  0.46461254  0.86970913  0.38771138    -0.37100
N1395       N  0.46262601  0.83241142  0.55027997    -0.38200
N1396       N  0.50108035  0.83298022  0.55469639    -0.39800
C1397       C  0.38257852  0.76328005  0.42881005    -0.04800
C1398       C  0.39187229  0.75580981  0.40994738     0.09400
C1399       C  0.40178825  0.76192564  0.38973253    -0.02200
C1400       C  0.40279322  0.77544578  0.38995784    -0.00400
C1401       C  0.39418759  0.78291338  0.41163837    -0.04000
C1402       C  0.38376769  0.77681586  0.42993761     0.03000
C1403       C  0.39177737  0.74147052  0.41332233     0.09800
C1404       C  0.41123613  0.75425488  0.36979219     0.35700
C1405       C  0.37466000  0.78432489  0.45158170     0.39100
C1406       C  0.38594747  0.73385178  0.38556228    -0.04400
C1407       C  0.38671157  0.72029531  0.38758233     0.02800
C1408       C  0.39362538  0.71431417  0.41693194    -0.04000
C1409       C  0.39902370  0.72199689  0.44551447    -0.00200
C1410       C  0.39804234  0.73552281  0.44375883    -0.02800
C1411       C  0.37948678  0.74002190  0.35438333     0.36500
C1412       C  0.40545776  0.71600933  0.47708291     0.40100
C1413       C  0.38080346  0.71256991  0.35860595     0.39200
C1414       C  0.40368202  0.74338907  0.47293719     0.36100
C1415       C  0.37204212  0.75694518  0.44802427     0.36800
C1416       C  0.41263408  0.78168534  0.36753707     0.40100
N1417       N  0.37601603  0.70641193  0.33558020    -0.38000
N1418       N  0.37439467  0.74498163  0.32944794    -0.39600
N1419       N  0.41059166  0.71127333  0.50231706    -0.37300
N1420       N  0.40813376  0.74970316  0.49617678    -0.39700
N1421       N  0.41880615  0.74813616  0.35402855    -0.39500
N1422       N  0.42042108  0.78668221  0.34949130    -0.37100
N1423       N  0.36735968  0.79027966  0.46887205    -0.38200
N1424       N  0.36363975  0.75183341  0.46322939    -0.39800
C1425       C  0.15368934  0.09484782  0.89810797    -0.04800
C1426       C  0.15377570  0.08589399  0.92782635     0.09400
C1427       C  0.14424186  0.08664338  0.95584260    -0.02200
C1428       C  0.13468410  0.09630271  0.95430270    -0.00400
C1429       C  0.13464688  0.10540180  0.92480885    -0.04000
C1430       C  0.14418639  0.10458666  0.89661587     0.03000
C1431       C  0.16391507  0.07563080  0.92998566     0.09800
C1432       C  0.14441751  0.07752805  0.98663129     0.35700
C1433       C  0.14401913  0.11352023  0.86538668     0.39100
C1434       C  0.17622076  0.07852234  0.94436806    -0.04400
C1435       C  0.18547436  0.06867381  0.94876214     0.02800
C1436       C  0.18248935  0.05586290  0.93878447    -0.04000
C1437       C  0.17026702  0.05301586  0.92371340    -0.00200
C1438       C  0.16102398  0.06288391  0.91922208    -0.02800
C1439       C  0.17934031  0.09164937  0.95467849     0.36500
C1440       C  0.16730247  0.03999463  0.91203165     0.40100
C1441       C  0.19806966  0.07167798  0.96388195     0.39200
C1442       C  0.14855745  0.05999922  0.90310227     0.36100
C1443       C  0.16335586  0.09396583  0.86894846     0.36800
C1444       C  0.12516185  0.09709008  0.98388120     0.40100
N1445       N  0.20814139  0.07400527  0.97586941    -0.38000
N1446       N  0.18185198  0.10213855  0.96270489    -0.39600
N1447       N  0.16489883  0.02962674  0.90255477    -0.37300
N1448       N  0.13860680  0.05776092  0.89016283    -0.39700
N1449       N  0.14461282  0.07022507  0.01110172    -0.39500
N1450       N  0.11756835  0.09767280  0.00750478    -0.37100
N1451       N  0.14387752  0.12063582  0.84044544    -0.38200
N1452       N  0.17107608  0.09326677  0.84570072    -0.39800
C1453       C  0.33345278  0.06395996  0.73401974    -0.04800
C1454       C  0.33458939  0.07342064  0.70586609     0.09400
C1455       C  0.32552197  0.07392532  0.67657806    -0.02200
C1456       C  0.31524031  0.06510595  0.67567178    -0.00400
C1457       C  0.31409604  0.05561067  0.70377428    -0.04000
C1458       C  0.32326922  0.05500810  0.73285524     0.03000
C1459       C  0.34529340  0.08298959  0.70700644     0.09800
C1460       C  0.32682928  0.08354039  0.64735600     0.35700
C1461       C  0.32238478  0.04498077  0.76104024     0.39100
C1462       C  0.35674433  0.08066675  0.68700007    -0.04400
C1463       C  0.36646178  0.09012015  0.68566590     0.02800
C1464       C  0.36499808  0.10180254  0.70564806    -0.04000
C1465       C  0.35357732  0.10394441  0.72642811    -0.00200
C1466       C  0.34370483  0.09463570  0.72661912    -0.02800
C1467       C  0.35840921  0.06857963  0.66729250     0.36500
C1468       C  0.35199192  0.11560630  0.74821462     0.40100
C1469       C  0.37758512  0.08805989  0.66186366     0.39200
C1470       C  0.33177637  0.09707842  0.74653312     0.36100
C1471       C  0.34281863  0.06342523  0.76400724     0.36800
C1472       C  0.30570129  0.06592993  0.64617816     0.40100
N1473       N  0.38640660  0.08642783  0.64265938    -0.38000
N1474       N  0.35973904  0.05891638  0.65169360    -0.39600
N1475       N  0.35066070  0.12489299  0.76563694    -0.37300
N1476       N  0.32221605  0.09899200  0.76220888    -0.39700
N1477       N  0.32795065  0.09119954  0.62404199    -0.39500
N1478       N  0.29806500  0.06658153  0.62272168    -0.37100
N1479       N  0.32165594  0.03694267  0.78339804    -0.38200
N1480       N  0.35029355  0.06301910  0.78794135    -0.39800
C1481       C  0.24554309  0.04167555  0.87642572    -0.04800
C1482       C  0.24373885  0.03607270  0.84095097     0.09400
C1483       C  0.23181490  0.03044474  0.83173360    -0.02200
C1484       C  0.22160394  0.03068699  0.85761105    -0.00400
C1485       C  0.22337918  0.03632879  0.89305684    -0.04000
C1486       C  0.23535100  0.04184722  0.90243651     0.03000
C1487       C  0.25422184  0.03656385  0.81252841     0.09800
C1488       C  0.23011453  0.02437262  0.79561411     0.35700
C1489       C  0.23703245  0.04805211  0.93836758     0.39100
C1490       C  0.26355780  0.02671173  0.81106939    -0.04400
C1491       C  0.27324853  0.02705388  0.78355097     0.02800
C1492       C  0.27353703  0.03718324  0.75712902    -0.04000
C1493       C  0.26413050  0.04699977  0.75847230    -0.00200
C1494       C  0.25456059  0.04674839  0.78637943    -0.02800
C1495       C  0.26309537  0.01617469  0.83769941     0.36500
C1496       C  0.26402514  0.05708712  0.73036023     0.40100
C1497       C  0.28297847  0.01701368  0.78244895     0.39200
C1498       C  0.24496752  0.05690042  0.78816326     0.36100
C1499       C  0.25787876  0.04729539  0.88595918     0.36800
C1500       C  0.20920897  0.02527092  0.84769049     0.40100
N1501       N  0.29075371  0.00902827  0.78128003    -0.38000
N1502       N  0.26271849  0.00774904  0.85889367    -0.39600
N1503       N  0.26388396  0.06509186  0.70780456    -0.37300
N1504       N  0.23729530  0.06497455  0.78980136    -0.39700
N1505       N  0.22882175  0.01948349  0.76683445    -0.39500
N1506       N  0.19927828  0.02104310  0.83981007    -0.37100
N1507       N  0.23836030  0.05309401  0.96690923    -0.38200
N1508       N  0.26775000  0.05172970  0.89350830    -0.39800
C1509       C  0.33971037  0.92777510  0.41739411    -0.04800
C1510       C  0.33727086  0.91482782  0.42714244     0.09400
C1511       C  0.32469694  0.91105642  0.43727591    -0.02200
C1512       C  0.31465269  0.92021616  0.43830276    -0.00400
C1513       C  0.31717482  0.93327269  0.42989437    -0.04000
C1514       C  0.32972408  0.93700519  0.41914071     0.03000
C1515       C  0.34797947  0.90513914  0.42738487     0.09800
C1516       C  0.32217528  0.89774692  0.44718540     0.35700
C1517       C  0.33232351  0.95034054  0.40966822     0.39100
C1518       C  0.35539823  0.90326334  0.45997041    -0.04400
C1519       C  0.36528617  0.89391222  0.46062025     0.02800
C1520       C  0.36766237  0.88618684  0.42884287    -0.04000
C1521       C  0.36007724  0.88796804  0.39639825    -0.00200
C1522       C  0.35039003  0.89751980  0.39556120    -0.02800
C1523       C  0.35258555  0.91074866  0.49317453     0.36500
C1524       C  0.36226627  0.88002956  0.36369121     0.40100
C1525       C  0.37258255  0.89183082  0.49464913     0.39200
C1526       C  0.34280251  0.89948590  0.36202412     0.36100
C1527       C  0.35250788  0.93155371  0.40550595     0.36800
C1528       C  0.30176535  0.91626229  0.44886120     0.40100
N1529       N  0.37837744  0.89014673  0.52183708    -0.38000
N1530       N  0.35026045  0.91667829  0.51968896    -0.39600
N1531       N  0.36394780  0.87364005  0.33767396    -0.37300
N1532       N  0.33674407  0.90109294  0.33529021    -0.39700
N1533       N  0.32022275  0.88711927  0.45514239    -0.39500
N1534       N  0.29145814  0.91313480  0.45710674    -0.37100
N1535       N  0.33437195  0.96099148  0.40217895    -0.38200
N1536       N  0.36271396  0.93452860  0.39583479    -0.39800
C1537       C  0.30133768  0.99150040  0.52493085    -0.04800
C1538       C  0.29630553  0.98779666  0.55999542     0.09400
C1539       C  0.29207014  0.97503348  0.56570506    -0.02200
C1540       C  0.29282704  0.96601967  0.53637104    -0.00400
C1541       C  0.29754011  0.96983368  0.50104643    -0.04000
C1542       C  0.30179727  0.98257967  0.49537068     0.03000
C1543       C  0.29518522  0.99751040  0.59053711     0.09800
C1544       C  0.28663419  0.97130509  0.60146333     0.35700
C1545       C  0.30645367  0.98654164  0.45888996     0.39100
C1546       C  0.28517368  0.00671760  0.58964385    -0.04400
C1547       C  0.28460430  0.01646786  0.61690867     0.02800
C1548       C  0.29392523  0.01690559  0.64555805    -0.04000
C1549       C  0.30360678  0.00735894  0.64737445    -0.00200
C1550       C  0.30432775  0.99777136  0.61965351    -0.02800
C1551       C  0.27549452  0.00615278  0.56050257     0.36500
C1552       C  0.31264963  0.00726543  0.67826211     0.40100
C1553       C  0.27458828  0.02620508  0.61506674     0.39200
C1554       C  0.31455296  0.98825306  0.62079203     0.36100
C1555       C  0.30592906  0.00454857  0.51928669     0.36800
C1556       C  0.28850000  0.95289125  0.54218263     0.40100
N1557       N  0.26660283  0.03397756  0.61369764    -0.38000
N1558       N  0.26778001  0.00566623  0.53724241    -0.39600
N1559       N  0.31978325  0.00720982  0.70308485    -0.37300
N1560       N  0.32270488  0.98064917  0.62170406    -0.39700
N1561       N  0.28226716  0.96836921  0.62999478    -0.39500
N1562       N  0.28508036  0.94240123  0.54672183    -0.37100
N1563       N  0.31009884  0.98968497  0.42969849    -0.38200
N1564       N  0.30957165  0.01497177  0.51493600    -0.39800
C1565       C  0.17425386  0.90997043  0.18692537    -0.04800
C1566       C  0.16361975  0.91059492  0.21141771     0.09400
C1567       C  0.16223493  0.92122966  0.23560550    -0.02200
C1568       C  0.17150988  0.93115640  0.23547617    -0.00400
C1569       C  0.18211539  0.93056194  0.21080184    -0.04000
C1570       C  0.18343518  0.91995488  0.18646530     0.03000
C1571       C  0.15386778  0.90000409  0.21152554     0.09800
C1572       C  0.15118241  0.92197873  0.26030004     0.35700
C1573       C  0.19432760  0.91927165  0.16116449     0.39100
C1574       C  0.15464384  0.89001054  0.23821566    -0.04400
C1575       C  0.14567808  0.87981840  0.23764588     0.02800
C1576       C  0.13581784  0.87960959  0.21044070    -0.04000
C1577       C  0.13522575  0.88950942  0.18326189    -0.00200
C1578       C  0.14413350  0.89973483  0.18409080    -0.02800
C1579       C  0.16467194  0.89027310  0.26636859     0.36500
C1580       C  0.12583175  0.88888684  0.15333095     0.40100
C1581       C  0.14649591  0.86968303  0.26551674     0.39200
C1582       C  0.14329177  0.91003062  0.15672916     0.36100
C1583       C  0.17573731  0.89898826  0.16230146     0.36800
C1584       C  0.17007190  0.94206834  0.26036394     0.40100
N1585       N  0.14718760  0.86156255  0.28763786    -0.38000
N1586       N  0.17265373  0.89052116  0.28888948    -0.39600
N1587       N  0.11840314  0.88832988  0.12930613    -0.37300
N1588       N  0.14261030  0.91825998  0.13495336    -0.39700
N1589       N  0.14233612  0.92254358  0.27991432    -0.39500
N1590       N  0.16893756  0.95077674  0.28023393    -0.37100
N1591       N  0.20301555  0.91874678  0.14096190    -0.38200
N1592       N  0.17686382  0.89020286  0.14271791    -0.39800
C1593       C  0.24193793  0.94304403  0.28746841    -0.04800
C1594       C  0.24222620  0.95270521  0.31513980     0.09400
C1595       C  0.23211469  0.96177050  0.31728639    -0.02200
C1596       C  0.22175051  0.96116195  0.29186228    -0.00400
C1597       C  0.22150150  0.95153091  0.26405518    -0.04000
C1598       C  0.23165423  0.94250715  0.26183735     0.03000
C1599       C  0.25332232  0.95331263  0.34170878     0.09800
C1600       C  0.23247381  0.97178810  0.34542131     0.35700
C1601       C  0.23171866  0.93293415  0.23236792     0.39100
C1602       C  0.26480804  0.95959087  0.33109893    -0.04400
C1603       C  0.27562028  0.95930521  0.35492046     0.02800
C1604       C  0.27501922  0.95264532  0.38928822    -0.04000
C1605       C  0.26341470  0.94669802  0.40040214    -0.00200
C1606       C  0.25256601  0.94709836  0.37675151    -0.02800
C1607       C  0.26543000  0.96640139  0.29572585     0.36500
C1608       C  0.26269522  0.94011068  0.43613794     0.40100
C1609       C  0.28730514  0.96604046  0.34446283     0.39200
C1610       C  0.24059225  0.94116314  0.38843002     0.36100
C1611       C  0.25232233  0.93371798  0.28528600     0.36800
C1612       C  0.21131727  0.97042661  0.29424707     0.40100
N1613       N  0.29662577  0.97145705  0.33632414    -0.38000
N1614       N  0.26587934  0.97185529  0.26751709    -0.39600
N1615       N  0.26217738  0.93487576  0.46468504    -0.37300
N1616       N  0.23099636  0.93651879  0.39780540    -0.39700
N1617       N  0.23277698  0.97979378  0.36785103    -0.39500
N1618       N  0.20297232  0.97779962  0.29600529    -0.37100
N1619       N  0.23177482  0.92535411  0.20870619    -0.38200
N1620       N  0.26063823  0.92630892  0.28368582    -0.39800
C1621       C  0.21114911  0.00779777  0.06091404    -0.04800
C1622       C  0.20182803  0.99793616  0.06055167     0.09400
C1623       C  0.19252204  0.99764812  0.03186160    -0.02200
C1624       C  0.19249835  0.00721179  0.00374505    -0.00400
C1625       C  0.20162747  0.01728014  0.00457901    -0.04000
C1626       C  0.21095523  0.01753078  0.03333284     0.03000
C1627       C  0.20159865  0.98804954  0.09108467     0.09800
C1628       C  0.18300619  0.98744957  0.03127562     0.35700
C1629       C  0.22023957  0.02793035  0.03492418     0.39100
C1630       C  0.19549581  0.99087962  0.12537906    -0.04400
C1631       C  0.19516389  0.98159074  0.15417835     0.02800
C1632       C  0.20109733  0.96949387  0.14903570    -0.04000
C1633       C  0.20740807  0.96672945  0.11503018    -0.00200
C1634       C  0.20758015  0.97595558  0.08599903    -0.02800
C1635       C  0.18970655  0.00343963  0.13110801     0.36500
C1636       C  0.21395963  0.95448882  0.11034145     0.40100
C1637       C  0.18878124  0.98447482  0.18925091     0.39200
C1638       C  0.21406586  0.97310583  0.05108438     0.36100
C1639       C  0.22101609  0.00782028  0.08956800     0.36800
C1640       C  0.18333621  0.00645660  0.97329313     0.40100
N1641       N  0.18369505  0.98673371  0.21727187    -0.38000
N1642       N  0.18518053  0.01350726  0.13565165    -0.39600
N1643       N  0.21924275  0.94474292  0.10684267    -0.37300
N1644       N  0.21924503  0.97083142  0.02321722    -0.39700
N1645       N  0.17543151  0.97929234  0.03085493    -0.39500
N1646       N  0.17606805  0.00578999  0.94889506    -0.37100
N1647       N  0.22763363  0.03623636  0.03634877    -0.38200
N1648       N  0.22891247  0.00776033  0.11235838    -0.39800
C1649       C  0.32751400  0.57743183  0.45554356    -0.04800
C1650       C  0.33274588  0.58167645  0.42118444     0.09400
C1651       C  0.32857784  0.57585863  0.38769001    -0.02200
C1652       C  0.31978578  0.56550380  0.38860653    -0.00400
C1653       C  0.31416610  0.56148590  0.42287966    -0.04000
C1654       C  0.31798683  0.56771467  0.45630947     0.03000
C1655       C  0.34274018  0.59218315  0.42017499     0.09800
C1656       C  0.33324767  0.58066045  0.35205140     0.35700
C1657       C  0.31186052  0.56449379  0.49154034     0.39100
C1658       C  0.35547520  0.58940839  0.40886365    -0.04400
C1659       C  0.36475565  0.59930456  0.40663870     0.02800
C1660       C  0.36175628  0.61197269  0.41867301    -0.04000
C1661       C  0.34895245  0.61471208  0.43016416    -0.00200
C1662       C  0.33946090  0.60495846  0.42983807    -0.02800
C1663       C  0.35908591  0.57628451  0.39961826     0.36500
C1664       C  0.34545537  0.62742933  0.44347827     0.40100
C1665       C  0.37718614  0.59646392  0.39003009     0.39200
C1666       C  0.32623780  0.60808493  0.43936735     0.36100
C1667       C  0.33195873  0.58308079  0.49026225     0.36800
C1668       C  0.31689454  0.55876260  0.35413765     0.40100
N1669       N  0.38704764  0.59417491  0.37648126    -0.38000
N1670       N  0.36196797  0.56582904  0.39216354    -0.39600
N1671       N  0.34253475  0.63754379  0.45410456    -0.37300
N1672       N  0.31569285  0.61055320  0.44701316    -0.39700
N1673       N  0.33697419  0.58452682  0.32368506    -0.39500
N1674       N  0.31460516  0.55341576  0.32659441    -0.37100
N1675       N  0.30701412  0.56199876  0.51976765    -0.38200
N1676       N  0.33548327  0.58762823  0.51791407    -0.39800
C1677       C  0.33014600  0.40988268  0.68715305    -0.04800
C1678       C  0.33435061  0.40528762  0.65210283     0.09400
C1679       C  0.32922054  0.41077689  0.61919864    -0.02200
C1680       C  0.31968036  0.42046943  0.62129812    -0.00400
C1681       C  0.31594113  0.42564177  0.65641574    -0.04000
C1682       C  0.32151888  0.42038455  0.68933976     0.03000
C1683       C  0.34440299  0.39485104  0.64998408     0.09800
C1684       C  0.33386981  0.40651687  0.58301530     0.35700
C1685       C  0.31887600  0.42603510  0.72561130     0.39100
C1686       C  0.34119232  0.38243044  0.63705532    -0.04400
C1687       C  0.35069691  0.37269707  0.63474214     0.02800
C1688       C  0.36343527  0.37504545  0.64735439    -0.04000
C1689       C  0.36648774  0.38746469  0.66130791    -0.00200
C1690       C  0.35714933  0.39736698  0.66143011    -0.02800
C1691       C  0.32802364  0.37964016  0.62629990     0.36500
C1692       C  0.37904338  0.39006763  0.67728561     0.40100
C1693       C  0.34732279  0.36043186  0.61811438     0.39200
C1694       C  0.36067521  0.41024039  0.67337477     0.36100
C1695       C  0.33465829  0.40368982  0.72112227     0.36800
C1696       C  0.31351652  0.42478437  0.58710411     0.40100
N1697       N  0.34453937  0.35068450  0.60475523    -0.38000
N1698       N  0.31752146  0.37744785  0.61766829    -0.39600
N1699       N  0.38901875  0.39223527  0.69018673    -0.37300
N1700       N  0.36346466  0.42050515  0.68291523    -0.39700
N1701       N  0.33759600  0.40312317  0.55417678    -0.39500
N1702       N  0.30864722  0.42824770  0.55978259    -0.37100
N1703       N  0.31680859  0.43051108  0.75460325    -0.38200
N1704       N  0.33822780  0.39867505  0.74811583    -0.39800
C1705       C  0.28752651  0.47918006  0.55606617    -0.04800
C1706       C  0.29818606  0.48747980  0.55244632     0.09400
C1707       C  0.30898245  0.48571531  0.57582084    -0.02200
C1708       C  0.30895756  0.47598718  0.60355650    -0.00400
C1709       C  0.29818016  0.46777024  0.60772185    -0.04000
C1710       C  0.28753490  0.46933280  0.58336385     0.03000
C1711       C  0.29779897  0.49846030  0.52508515     0.09800
C1712       C  0.32013490  0.49394493  0.57114243     0.35700
C1713       C  0.27666610  0.46060617  0.58572971     0.39100
C1714       C  0.29290944  0.51054035  0.53634399    -0.04400
C1715       C  0.29256011  0.52095426  0.51092611     0.02800
C1716       C  0.29702910  0.51935419  0.47394041    -0.04000
C1717       C  0.30161518  0.50717838  0.46236443    -0.00200
C1718       C  0.30208330  0.49678643  0.48794240    -0.02800
C1719       C  0.28798796  0.51214448  0.57398756     0.36500
C1720       C  0.30570265  0.50532538  0.42399154     0.40100
C1721       C  0.28717562  0.53321835  0.52243423     0.39200
C1722       C  0.30683262  0.48431754  0.47602578     0.36100
C1723       C  0.27654681  0.48077697  0.53147198     0.36800
C1724       C  0.31991274  0.47467428  0.62836400     0.40100
N1725       N  0.28279908  0.54297862  0.53152529    -0.38000
N1726       N  0.28400533  0.51335721  0.60398851    -0.39600
N1727       N  0.30888635  0.50384518  0.39329785    -0.37300
N1728       N  0.31060176  0.47435218  0.46653069    -0.39700
N1729       N  0.32903477  0.50049279  0.56712178    -0.39500
N1730       N  0.32867759  0.47362618  0.64808437    -0.37100
N1731       N  0.26800473  0.45364275  0.58774988    -0.38200
N1732       N  0.26780870  0.48204939  0.51176440    -0.39800
C1733       C  0.17228479  0.41518126  0.88109498    -0.04800
C1734       C  0.16859551  0.40958424  0.91547095     0.09400
C1735       C  0.17459502  0.41363336  0.94883087    -0.02200
C1736       C  0.18450626  0.42286777  0.94767281    -0.00400
C1737       C  0.18776112  0.42898744  0.91352423    -0.04000
C1738       C  0.18142677  0.42519263  0.88028183     0.03000
C1739       C  0.15842228  0.39937959  0.91656340     0.09800
C1740       C  0.17054022  0.40830658  0.98448831     0.35700
C1741       C  0.18400880  0.43177894  0.84525531     0.39100
C1742       C  0.16160542  0.38668002  0.92732690    -0.04400
C1743       C  0.15191601  0.37727166  0.93057275     0.02800
C1744       C  0.13913620  0.38010867  0.91942454    -0.04000
C1745       C  0.13610851  0.39270175  0.90684809    -0.00200
C1746       C  0.14557376  0.40240877  0.90709152    -0.02800
C1747       C  0.17490659  0.38325723  0.93490559     0.36500
C1748       C  0.12343620  0.39565236  0.89206832     0.40100
C1749       C  0.15509070  0.36490543  0.94718337     0.39200
C1750       C  0.14206291  0.41556309  0.89771167     0.36100
C1751       C  0.16673501  0.41054701  0.84643141     0.36800
C1752       C  0.19164647  0.42567750  0.98153782     0.40100
N1753       N  0.15764936  0.35510085  0.96075108    -0.38000
N1754       N  0.18551108  0.38053090  0.94092875    -0.39600
N1755       N  0.11337504  0.39803916  0.88000164    -0.37300
N1756       N  0.13926977  0.42604800  0.89019628    -0.39700
N1757       N  0.16732412  0.40402029  0.01287630    -0.39500
N1758       N  0.19736524  0.42788814  0.00850864    -0.37100
N1759       N  0.18606237  0.43701608  0.81729795    -0.38200
N1760       N  0.16229031  0.40683763  0.81884150    -0.39800
C1761       C  0.25670791  0.43723234  0.74179922    -0.04800
C1762       C  0.25762113  0.44552767  0.77290077     0.09400
C1763       C  0.26833367  0.45377855  0.77625490    -0.02200
C1764       C  0.27799573  0.45386915  0.74849120    -0.00400
C1765       C  0.27697847  0.44576830  0.71694290    -0.04000
C1766       C  0.26633003  0.43738434  0.71382213     0.03000
C1767       C  0.24715149  0.44589187  0.80179916     0.09800
C1768       C  0.26937605  0.46217976  0.80843276     0.35700
C1769       C  0.26515625  0.42910863  0.68142221     0.39100
C1770       C  0.24753227  0.43752494  0.83294154    -0.04400
C1771       C  0.23790474  0.43824956  0.86078259     0.02800
C1772       C  0.22797551  0.44751978  0.85800635    -0.04000
C1773       C  0.22751235  0.45577320  0.82660041    -0.00200
C1774       C  0.23703514  0.45492093  0.79853746    -0.02800
C1775       C  0.25788023  0.42821298  0.83633391     0.36500
C1776       C  0.21701429  0.46490778  0.82269773     0.40100
C1777       C  0.23818711  0.42945707  0.89232690     0.39200
C1778       C  0.23640417  0.46326859  0.76604678     0.36100
C1779       C  0.24582096  0.42858917  0.73860795     0.36800
C1780       C  0.28912446  0.46215339  0.75269813     0.40100
N1781       N  0.23831909  0.42241216  0.91743325    -0.38000
N1782       N  0.26615211  0.42079069  0.83903178    -0.39600
N1783       N  0.20860419  0.47215788  0.81965611    -0.37300
N1784       N  0.23590991  0.46988406  0.74001661    -0.39700
N1785       N  0.27014836  0.46885828  0.83417755    -0.39500
N1786       N  0.29802586  0.46873446  0.75604616    -0.37100
N1787       N  0.26424177  0.42252555  0.65550812    -0.38200
N1788       N  0.23714177  0.42167003  0.73618054    -0.39800
C1789       C  0.16991001  0.56803385  0.20533687    -0.04800
C1790       C  0.16756369  0.57537412  0.17278226     0.09400
C1791       C  0.17435675  0.57255885  0.13959897    -0.02200
C1792       C  0.18377232  0.56277327  0.13931578    -0.00400
C1793       C  0.18588541  0.55516814  0.17160468    -0.04000
C1794       C  0.17871242  0.55770304  0.20442148     0.03000
C1795       C  0.15772518  0.58591950  0.17325817     0.09800
C1796       C  0.17158763  0.57970652  0.10564392     0.35700
C1797       C  0.18015902  0.54951322  0.23707608     0.39100
C1798       C  0.16154276  0.59891047  0.17079047    -0.04400
C1799       C  0.15220839  0.60879081  0.16919971     0.02800
C1800       C  0.13892016  0.60585256  0.17354094    -0.04000
C1801       C  0.13527594  0.59275181  0.17826146    -0.00200
C1802       C  0.14456238  0.58287389  0.17620311    -0.02800
C1803       C  0.17514681  0.60209869  0.17012705     0.36500
C1804       C  0.12211526  0.58922895  0.18712130     0.40100
C1805       C  0.15646656  0.62183371  0.16159506     0.39200
C1806       C  0.14056416  0.56947873  0.17699449     0.36100
C1807       C  0.16332237  0.57120315  0.23990912     0.36800
C1808       C  0.19160492  0.56088765  0.10616708     0.40100
N1809       N  0.16004083  0.63217746  0.15542798    -0.38000
N1810       N  0.18599643  0.60460931  0.16978292    -0.39600
N1811       N  0.11166814  0.58625875  0.19433617    -0.37300
N1812       N  0.13741427  0.55879461  0.17753137    -0.39700
N1813       N  0.16934575  0.58541005  0.07859294    -0.39500
N1814       N  0.19789354  0.55941449  0.07980157    -0.37100
N1815       N  0.18128385  0.54296008  0.26307882    -0.38200
N1816       N  0.15805996  0.57376229  0.26743593    -0.39800
C1817       C  0.23763177  0.52827820  0.27985573    -0.04800
C1818       C  0.24555671  0.53928118  0.28174935     0.09400
C1819       C  0.24401916  0.54926844  0.25534397    -0.02200
C1820       C  0.23452008  0.54831956  0.22733031    -0.00400
C1821       C  0.22653220  0.53730650  0.22542247    -0.04000
C1822       C  0.22811751  0.52730590  0.25190988     0.03000
C1823       C  0.25575708  0.54017866  0.31112863     0.09800
C1824       C  0.25233362  0.56046246  0.25685807     0.35700
C1825       C  0.21966146  0.51620126  0.25122116     0.39100
C1826       C  0.26775280  0.53409927  0.30549447    -0.04400
C1827       C  0.27726099  0.53454348  0.33352685     0.02800
C1828       C  0.27485495  0.54113522  0.36729803    -0.04000
C1829       C  0.26294506  0.54741457  0.37272167    -0.00200
C1830       C  0.25339353  0.54691384  0.34470451    -0.02800
C1831       C  0.27027262  0.52738683  0.27073844     0.36500
C1832       C  0.26050799  0.55426539  0.40728430     0.40100
C1833       C  0.28955851  0.52822413  0.32764662     0.39200
C1834       C  0.24109069  0.55322502  0.35044186     0.36100
C1835       C  0.23928262  0.51796143  0.30682838     0.36800
C1836       C  0.23304237  0.55865205  0.20028813     0.40100
N1837       N  0.29937476  0.52319096  0.32298885    -0.38000
N1838       N  0.27223023  0.52204884  0.24294836    -0.39600
N1839       N  0.25859638  0.55972889  0.43489781    -0.37300
N1840       N  0.23126892  0.55826650  0.35495082    -0.39700
N1841       N  0.25899373  0.56937402  0.25808222    -0.39500
N1842       N  0.23178820  0.56692183  0.17885040    -0.37100
N1843       N  0.21288790  0.50736701  0.25058180    -0.38200
N1844       N  0.24064748  0.50972389  0.32830578    -0.39800
C1845       C  0.19704411  0.48834537  0.99613184    -0.04800
C1846       C  0.20550926  0.48724205  0.02682749     0.09400
C1847       C  0.21434075  0.47691319  0.02830888    -0.02200
C1848       C  0.21489703  0.46788549  0.99892544    -0.00400
C1849       C  0.20656809  0.46908132  0.96790644    -0.04000
C1850       C  0.19752750  0.47925768  0.96682934     0.03000
C1851       C  0.20543823  0.49719059  0.05712525     0.09800
C1852       C  0.22278207  0.47554581  0.06033305     0.35700
C1853       C  0.18874212  0.48037183  0.93551723     0.39100
C1854       C  0.19848998  0.49509523  0.09053238    -0.04400
C1855       C  0.19872674  0.50439376  0.11929046     0.02800
C1856       C  0.20586413  0.51584725  0.11469018    -0.04000
C1857       C  0.21278227  0.51794653  0.08126725    -0.00200
C1858       C  0.21258059  0.50864267  0.05260399    -0.02800
C1859       C  0.19107720  0.48338185  0.09516501     0.36500
C1860       C  0.22004263  0.52974952  0.07633817     0.40100
C1861       C  0.19171075  0.50217209  0.15375619     0.39200
C1862       C  0.21973568  0.51081295  0.01835596     0.36100
C1863       C  0.18779270  0.49881078  0.99493318     0.36800
C1864       C  0.22381697  0.45714334  0.00103905     0.40100
N1865       N  0.18614727  0.50042485  0.18133530    -0.38000
N1866       N  0.18516010  0.47402879  0.09880770    -0.39600
N1867       N  0.22582669  0.53917717  0.07252175    -0.37300
N1868       N  0.22541589  0.51250413  0.99095281    -0.39700
N1869       N  0.22944985  0.47445545  0.08603806    -0.39500
N1870       N  0.23090200  0.44854666  0.00263557    -0.37100
N1871       N  0.18171116  0.48122181  0.91056263    -0.38200
N1872       N  0.18041614  0.50717149  0.99410380    -0.39800
loop_ 
_geom_bond_atom_site_label_1 
_geom_bond_atom_site_label_2 
_geom_bond_distance 
_geom_bond_site_symmetry_2 
_ccdc_geom_bond_type 
C1            C2   1.402       .  A
C1            C6   1.404       .  A
C1         C1793   1.490       .  S
C2            C3   1.401       .  A
C2            H7   1.084       .  S
C3            C4   1.406       .  A
C3         C1821   1.490       .  S
C4            C5   1.404       .  A
C4            H8   1.084       .  S
C5            C6   1.402       .  A
C5         C1856   1.486       .  S
C6            H9   1.084       .  S
C10          C11   1.405       .  A
C10          C15   1.405       .  A
C10        C1737   1.494       .  S
C11          C12   1.401       .  A
C11          H16   1.084       .  S
C12          C13   1.406       .  A
C12        C1849   1.489       .  S
C13          C14   1.406       .  A
C13          H17   1.084       .  S
C14          C15   1.401       .  A
C14        C1772   1.489       .  S
C15          H18   1.083       .  S
C19          C20   1.410       .  A
C19          C24   1.411       .  A
C19        C1681   1.507       .  S
C20          C21   1.403       .  A
C20          H25   1.083       .  S
C21          C22   1.403       .  A
C21        C1765   1.492       .  S
C22          C23   1.406       .  A
C22          H26   1.084       .  S
C23          C24   1.406       .  A
C23        C1709   1.499       .  S
C24          H27   1.083       .  S
C28          C29   1.409       .  A
C28          C33   1.412       .  A
C28        C1653   1.505       .  S
C29          C30   1.401       .  A
C29          H34   1.083       .  S
C30          C31   1.400       .  A
C30        C1828   1.485       .  S
C31          C32   1.401       .  A
C31          H35   1.084       .  S
C32          C33   1.407       .  A
C32        C1716   1.490       .  S
C33          H36   1.083       .  S
C37          C38   1.404       .  A
C37          C42   1.404       .  A
C37        C1569   1.487       .  S
C38          C39   1.403       .  A
C38          H43   1.084       .  S
C39          C40   1.400       .  A
C39        C1632   1.484       .  S
C40          C41   1.401       .  A
C40          H44   1.084       .  S
C41          C42   1.404       .  A
C41        C1597   1.486       .  S
C42          H45   1.084       .  S
C46          C47   1.407       .  A
C46          C51   1.404       .  A
C46        C1513   1.489       .  S
C47          C48   1.405       .  A
C47          H52   1.084       .  S
C48          C49   1.399       .  A
C48        C1604   1.484       .  S
C49          C50   1.399       .  A
C49          H53   1.084       .  S
C50          C51   1.401       .  A
C50        C1541   1.480       .  S
C51          H54   1.084       .  S
C55          C56   1.401       .  A
C55          C60   1.402       .  A
C55        C1457   1.483       .  S
C56          C57   1.402       .  A
C56          H61   1.084       .  S
C57          C58   1.399       .  A
C57        C1548   1.482       .  S
C58          C59   1.401       .  A
C58          H62   1.084       .  S
C59          C60   1.402       .  A
C59        C1492   1.482       .  S
C60          H63   1.084       .  S
C64          C65   1.401       .  A
C64          C69   1.407       .  A
C64        C1436   1.487       .  S
C65          C66   1.399       .  A
C65          H70   1.084       .  S
C66          C67   1.399       .  A
C66        C1485   1.479       .  S
C67          C68   1.402       .  A
C67          H71   1.084       .  S
C68          C69   1.408       .  A
C68        C1625   1.490   1_556  S
C69          H72   1.083       .  S
N73          N74   1.321       .  A
N73          C77   1.350       .  A
N73         Cu81   2.095       .  S
N74          C75   1.342       .  A
N74         Cu80   2.059       .  S
C75          C76   1.381       .  A
C75          H78   1.082       .  S
C76          C77   1.390       .  A
C76        C1373   1.491       .  S
C77          H79   1.081       .  S
Cu80         N83   2.059       .  S
Cu81         N91   2.096       .  S
Cu82         N84   2.076       .  S
Cu82         N90   2.077       .  S
N83          N84   1.320       .  A
N83          C87   1.340       .  A
N84          C85   1.349       .  A
C85          C86   1.388       .  A
C85          H88   1.081       .  S
C86          C87   1.381       .  A
C86        C1401   1.486       .  S
C87          H89   1.082       .  S
N90          N91   1.325       .  A
N90          C94   1.344       .  A
N91          C92   1.348       .  A
C92          C93   1.387       .  A
C92          H95   1.082       .  S
C93          C94   1.381       .  A
C93        C1520   1.490       .  S
C94          H96   1.082       .  S
N97          N98   1.321       .  A
N97         C101   1.350       .  A
N97        Cu105   2.091       .  S
N98          C99   1.341       .  A
N98        Cu104   2.058       .  S
C99         C100   1.381       .  A
C99         H102   1.083       .  S
C100        C101   1.390       .  A
C100       C1380   1.491       .  S
C101        H103   1.082       .  S
Cu104       N107   2.059       .  S
Cu105       N115   2.092       .  S
Cu106       N108   2.093       .  S
Cu106       N114   2.094       .  S
N107        N108   1.321       .  A
N107        C111   1.341       .  A
N108        C109   1.350       .  A
C109        C110   1.391       .  A
C109        H112   1.082       .  S
C110        C111   1.382       .  A
C110       C1345   1.494       .  S
C111        H113   1.082       .  S
N114        N115   1.324       .  A
N114        C118   1.347       .  A
N115        C116   1.347       .  A
C116        C117   1.390       .  A
C116        H119   1.081       .  S
C117        C118   1.391       .  A
C117       C1317   1.506       .  S
C118        H120   1.081       .  S
N121        N122   1.321       .  A
N121        C125   1.348       .  A
N121       Cu129   2.082       .  S
N122        C123   1.342       .  A
N122       Cu128   2.062       .  S
C123        C124   1.382       .  A
C123        H126   1.082       .  S
C124        C125   1.387       .  A
C124       C1408   1.487       .  S
C125        H127   1.082       .  S
Cu128       N131   2.062       .  S
Cu129       N139   2.083       .  S
Cu130       N132   2.088       .  S
Cu130       N138   2.089       .  S
N131        N132   1.321       .  A
N131        C135   1.341       .  A
N132        C133   1.349       .  A
C133        C134   1.390       .  A
C133        H136   1.082       .  S
C134        C135   1.383       .  A
C134       C1296   1.493       .  S
C135        H137   1.083       .  S
N138        N139   1.323       .  A
N138        C142   1.345       .  A
N139        C140   1.347       .  A
C140        C141   1.390       .  A
C140        H143   1.081       .  S
C141        C142   1.390       .  A
C141       C1660   1.503       .  S
C142        H144   1.081       .  S
N145        N146   1.322       .  A
N145        C149   1.349       .  A
N145       Cu153   2.086       .  S
N146        C147   1.343       .  A
N146       Cu152   2.071       .  S
C147        C148   1.382       .  A
C147        H150   1.082       .  S
C148        C149   1.387       .  A
C148       C1289   1.489       .  S
C149        H151   1.082       .  S
Cu152       N155   2.071       .  S
Cu153       N163   2.087       .  S
Cu154       N156   2.074       .  S
Cu154       N162   2.075       .  S
N155        N156   1.320       .  A
N155        C159   1.342       .  A
N156        C157   1.348       .  A
C157        C158   1.387       .  A
C157        H160   1.082       .  S
C158        C159   1.385       .  A
C158       C1352   1.491       .  S
C159        H161   1.082       .  S
N162        N163   1.325       .  A
N162        C166   1.344       .  A
N163        C164   1.347       .  A
C164        C165   1.385       .  A
C164        H167   1.082       .  S
C165        C166   1.380       .  A
C165       C1268   1.485       .  S
C166        H168   1.083       .  S
C169        C170   1.401       .  A
C169        C174   1.401       .  A
C169       C1177   1.487       .  S
C170        C171   1.409       .  A
C170        H175   1.082       .  S
C171        C172   1.411       .  A
C171       C1233   1.507       .  S
C172        C173   1.403       .  A
C172        H176   1.082       .  S
C173        C174   1.402       .  A
C173       C1205   1.490       .  S
C174        H177   1.084       .  S
C178        C179   1.397       .  A
C178        C183   1.401       .  A
C178       C1121   1.479       .  S
C179        C180   1.397       .  A
C179        H184   1.084       .  S
C180        C181   1.399       .  A
C180       C1149   1.476       .  S
C181        C182   1.407       .  A
C181        H185   1.083       .  S
C182        C183   1.408       .  A
C182       C1240   1.499       .  S
C183        H186   1.083       .  S
C187        C188   1.405       .  A
C187        C192   1.401       .  A
C187       C1261   1.485       .  S
C188        C189   1.405       .  A
C188        H193   1.084       .  S
C189        C190   1.400       .  A
C189       C1093   1.483       .  S
C190        C191   1.399       .  A
C190        H194   1.084       .  S
C191        C192   1.399       .  A
C191       C1156   1.476       .  S
C192        H195   1.084       .  S
C196        C197   1.403       .  A
C196        C201   1.402       .  A
C196       C1065   1.484       .  S
C197        C198   1.405       .  A
C197        H202   1.084       .  S
C198        C199   1.403       .  A
C198       C1212   1.490       .  S
C199        C200   1.403       .  A
C199        H203   1.084       .  S
C200        C201   1.402       .  A
C200       C1100   1.486       .  S
C201        H204   1.084       .  S
N205        N206   1.322       .  A
N205        C209   1.348       .  A
N205       Cu213   2.076       .  S
N206        C207   1.340       .  A
N206       Cu212   2.060       .  S
C207        C208   1.380       .  A
C207        H210   1.083       .  S
C208        C209   1.385       .  A
C208       C1044   1.482       .  S
C209        H211   1.082       .  S
Cu212       N215   2.060       .  S
Cu213       N223   2.077       .  S
Cu214       N216   2.074       .  S
Cu214       N222   2.075       .  S
N215        N216   1.322       .  A
N215        C219   1.341       .  A
N216        C217   1.347       .  A
C217        C218   1.383       .  A
C217        H220   1.082       .  S
C218        C219   1.379       .  A
C218       C1009   1.478       .  S
C219        H221   1.083       .  S
N222        N223   1.324       .  A
N222        C226   1.344       .  A
N223        C224   1.344       .  A
C224        C225   1.384       .  A
C224        H227   1.084       .  S
C225        C226   1.383       .  A
C225        C981   1.488       .  S
C226        H228   1.084       .  S
N229        N230   1.321       .  A
N229        C233   1.349       .  A
N229       Cu237   2.082       .  S
N230        C231   1.341       .  A
N230       Cu236   2.061       .  S
C231        C232   1.380       .  A
C231        H234   1.082       .  S
C232        C233   1.388       .  A
C232       C1037   1.486       .  S
C233        H235   1.082       .  S
Cu236       N239   2.060       .  S
Cu237       N247   2.083       .  S
Cu238       N240   2.071       .  S
Cu238       N246   2.072       .  S
N239        N240   1.320       .  A
N239        C243   1.341       .  A
N240        C241   1.346       .  A
C241        C242   1.386       .  A
C241        H244   1.082       .  S
C242        C243   1.383       .  A
C242        C953   1.487       .  S
C243        H245   1.082       .  S
N246        N247   1.324       .  A
N246        C250   1.344       .  A
N247        C248   1.345       .  A
C248        C249   1.384       .  A
C248        H251   1.082       .  S
C249        C250   1.382       .  A
C249       C1128   1.487       .  S
C250        H252   1.082       .  S
N253        N254   1.322       .  A
N253        C257   1.349       .  A
N253       Cu261   2.077       .  S
N254        C255   1.340       .  A
N254       Cu260   2.061       .  S
C255        C256   1.380       .  A
C255        H258   1.083       .  S
C256        C257   1.385       .  A
C256        C960   1.481       .  S
C257        H259   1.082       .  S
Cu260       N263   2.062       .  S
Cu261       N271   2.077       .  S
Cu262       N264   2.074       .  S
Cu262       N270   2.074       .  S
N263        N264   1.321       .  A
N263        C267   1.341       .  A
N264        C265   1.347       .  A
C265        C266   1.386       .  A
C265        H268   1.082       .  S
C266        C267   1.382       .  A
C266        C925   1.487       .  S
C267        H269   1.082       .  S
N270        N271   1.321       .  A
N270        C274   1.344       .  A
N271        C272   1.342       .  A
C272        C273   1.390       .  A
C272        H275   1.080       .  S
C273        C274   1.390       .  A
C273       C1800   1.502       .  S
C274        H276   1.080       .  S
N277        N278   1.321       .  A
N277        C281   1.346       .  A
N277       Cu285   2.067       .  S
N278        C279   1.341       .  A
N278       Cu284   2.068       .  S
C279        C280   1.384       .  A
C279        H282   1.083       .  S
C280        C281   1.385       .  A
C280       C1016   1.488       .  S
C281        H283   1.082       .  S
Cu284       N287   2.069       .  S
Cu285       N295   2.068       .  S
Cu286       N288   2.078       .  S
Cu286       N294   2.079       .  S
N287        N288   1.321       .  A
N287        C291   1.343       .  A
N288        C289   1.347       .  A
C289        C290   1.387       .  A
C289        H292   1.082       .  S
C290        C291   1.384       .  A
C290        C932   1.491       .  S
C291        H293   1.082       .  S
N294        N295   1.323       .  A
N294        C298   1.346       .  A
N295        C296   1.343       .  A
C296        C297   1.382       .  A
C296        H299   1.082       .  S
C297        C298   1.385       .  A
C297       C1576   1.487       .  S
C298        H300   1.082       .  S
N301        N302   1.322       .  A
N301        C305   1.349       .  A
N301       Cu309   2.084       .  S
N302        C303   1.343       .  A
N302       Cu308   2.071       .  S
C303        C304   1.382       .  A
C303        H306   1.083       .  S
C304        C305   1.386       .  A
C304        C897   1.488       .  S
C305        H307   1.082       .  S
Cu308       N311   2.071       .  S
Cu309       N319   2.085       .  S
Cu310       N312   2.082       .  S
Cu310       N318   2.083       .  S
N311        N312   1.322       .  A
N311        C315   1.342       .  A
N312        C313   1.349       .  A
C313        C314   1.388       .  A
C313        H316   1.082       .  S
C314        C315   1.384       .  A
C314        C869   1.492       .  S
C315        H317   1.083       .  S
N318        N319   1.324       .  A
N318        C322   1.345       .  A
N319        C320   1.346       .  A
C320        C321   1.386       .  A
C320        H323   1.082       .  S
C321        C322   1.385       .  A
C321       C1072   1.492       .  S
C322        H324   1.082       .  S
N325        N326   1.321       .  A
N325        C329   1.350       .  A
N325       Cu333   2.088       .  S
N326        C327   1.341       .  A
N326       Cu332   2.059       .  S
C327        C328   1.382       .  A
C327        H330   1.083       .  S
C328        C329   1.390       .  A
C328        C904   1.492       .  S
C329        H331   1.082       .  S
Cu332       N335   2.058       .  S
Cu333       N343   2.089       .  S
Cu334       N336   2.084       .  S
Cu334       N342   2.085       .  S
N335        N336   1.321       .  A
N335        C339   1.341       .  A
N336        C337   1.348       .  A
C337        C338   1.388       .  A
C337        H340   1.082       .  S
C338        C339   1.381       .  A
C338        C841   1.488       .  S
C339        H341   1.083       .  S
N342        N343   1.323       .  A
N342        C346   1.346       .  A
N343        C344   1.345       .  A
C344        C345   1.389       .  A
C344        H347   1.081       .  S
C345        C346   1.390       .  A
C345       C1688   1.503       .  S
C346        H348   1.081       .  S
N349        N350   1.322       .  A
N349        C353   1.348       .  A
N349       Cu357   2.080       .  S
N350        C351   1.344       .  A
N350       Cu356   2.074       .  S
C351        C352   1.382       .  A
C351        H354   1.081       .  S
C352        C353   1.386       .  A
C352        C876   1.488       .  S
C353        H355   1.082       .  S
Cu356       N359   2.074       .  S
Cu357       N367   2.080       .  S
Cu358       N360   2.075       .  S
Cu358       N366   2.075       .  S
N359        N360   1.321       .  A
N359        C363   1.344       .  A
N360        C361   1.347       .  A
C361        C362   1.386       .  A
C361        H364   1.082       .  S
C362        C363   1.384       .  A
C362        C813   1.489       .  S
C363        H365   1.082       .  S
N366        N367   1.322       .  A
N366        C370   1.343       .  A
N367        C368   1.345       .  A
C368        C369   1.388       .  A
C368        H371   1.081       .  S
C369        C370   1.386       .  A
C369        C792   1.496       .  S
C370        H372   1.081       .  S
N373        N374   1.321       .  A
N373        C377   1.348       .  A
N373       Cu381   2.074       .  S
N374        C375   1.341       .  A
N374       Cu380   2.058       .  S
C375        C376   1.380       .  A
C375        H378   1.082       .  S
C376        C377   1.386       .  A
C376        C848   1.483       .  S
C377        H379   1.082       .  S
Cu380       N383   2.058       .  S
Cu381       N391   2.076       .  S
Cu382       N384   2.084       .  S
Cu382       N390   2.085       .  S
N383        N384   1.322       .  A
N383        C387   1.340       .  A
N384        C385   1.349       .  A
C385        C386   1.387       .  A
C385        H388   1.082       .  S
C386        C387   1.378       .  A
C386        C820   1.483       .  S
C387        H389   1.083       .  S
N390        N391   1.324       .  A
N390        C394   1.345       .  A
N391        C392   1.344       .  A
C392        C393   1.384       .  A
C392        H395   1.082       .  S
C393        C394   1.386       .  A
C393       C1464   1.491       .  S
C394        H396   1.082       .  S
C397        C398   1.404       .  A
C397        C402   1.403       .  A
C397        C988   1.486       .  S
C398        C399   1.403       .  A
C398        H403   1.084       .  S
C399        C400   1.401       .  A
C399        C757   1.483       .  S
C400        C401   1.402       .  A
C400        H404   1.084       .  S
C401        C402   1.401       .  A
C401        C729   1.483       .  S
C402        H405   1.084       .  S
C406        C407   1.402       .  A
C406        C411   1.402       .  A
C406        C680   1.481       .  S
C407        C408   1.402       .  A
C407        H412   1.084       .  S
C408        C409   1.402       .  A
C408        C701   1.484       .  S
C409        C410   1.401       .  A
C409        H413   1.084       .  S
C410        C411   1.401       .  A
C410        C736   1.481   1_556  S
C411        H414   1.084       .  S
C415        C416   1.409       .  A
C415        C420   1.406       .  A
C415       C1324   1.503       .  S
C416        C417   1.406       .  A
C416        H421   1.083       .  S
C417        C418   1.401       .  A
C417        C764   1.490       .  S
C418        C419   1.402       .  A
C418        H422   1.084       .  S
C419        C420   1.402       .  A
C419        C645   1.488       .  S
C420        H423   1.083       .  S
C424        C425   1.406       .  A
C424        C429   1.406       .  A
C424        C785   1.494       .  S
C425        C426   1.403       .  A
C425        H430   1.084       .  S
C426        C427   1.399       .  A
C426        C652   1.481       .  S
C427        C428   1.399       .  A
C427        H431   1.084       .  S
C428        C429   1.401       .  A
C428        C708   1.480       .  S
C429        H432   1.084       .  S
N433        N434   1.321       .  A
N433        C437   1.348       .  A
N433       Cu441   2.079       .  S
N434        C435   1.341       .  A
N434       Cu440   2.059       .  S
C435        C436   1.381       .  A
C435        H438   1.083       .  S
C436        C437   1.388       .  A
C436        C589   1.487       .  S
C437        H439   1.082       .  S
Cu440       N443   2.059       .  S
Cu441       N451   2.081       .  S
Cu442       N444   2.076       .  S
Cu442       N450   2.078       .  S
N443        N444   1.321       .  A
N443        C447   1.339       .  A
N444        C445   1.349       .  A
C445        C446   1.388       .  A
C445        H448   1.081       .  S
C446        C447   1.381       .  A
C446        C617   1.487       .  S
C447        H449   1.083       .  S
N450        N451   1.325       .  A
N450        C454   1.344       .  A
N451        C452   1.345       .  A
C452        C453   1.383       .  A
C452        H455   1.082       .  S
C453        C454   1.382       .  A
C453        C673   1.486       .  S
C454        H456   1.082       .  S
N457        N458   1.321       .  A
N457        C461   1.347       .  A
N457       Cu465   2.075       .  S
N458        C459   1.342       .  A
N458       Cu464   2.066       .  S
C459        C460   1.383       .  A
C459        H462   1.082       .  S
C460        C461   1.386       .  A
C460        C561   1.487       .  S
C461        H463   1.082       .  S
Cu464       N467   2.066       .  S
Cu465       N475   2.076       .  S
Cu466       N468   2.076       .  S
Cu466       N474   2.077       .  S
N467        N468   1.322       .  A
N467        C471   1.343       .  A
N468        C469   1.346       .  A
C469        C470   1.385       .  A
C469        H472   1.082       .  S
C470        C471   1.383       .  A
C470        C624   1.486       .  S
C471        H473   1.082       .  S
N474        N475   1.324       .  A
N474        C478   1.345       .  A
N475        C476   1.344       .  A
C476        C477   1.382       .  A
C476        H479   1.083       .  S
C477        C478   1.382       .  A
C477       C1184   1.483       .  S
C478        H480   1.084       .  S
N481        N482   1.321       .  A
N481        C485   1.346       .  A
N481       Cu489   2.068       .  S
N482        C483   1.341       .  A
N482       Cu488   2.063       .  S
C483        C484   1.382       .  A
C483        H486   1.082       .  S
C484        C485   1.384       .  A
C484        C540   1.483       .  S
C485        H487   1.082       .  S
Cu488       N491   2.063       .  S
Cu489       N499   2.068       .  S
Cu490       N492   2.071       .  S
Cu490       N498   2.072       .  S
N491        N492   1.321       .  A
N491        C495   1.340       .  A
N492        C493   1.347       .  A
C493        C494   1.386       .  A
C493        H496   1.082       .  S
C494        C495   1.382       .  A
C494        C568   1.486       .  S
C495        H497   1.083       .  S
N498        N499   1.322       .  A
N498        C502   1.344       .  A
N499        C500   1.342       .  A
C500        C501   1.385       .  A
C500        H503   1.082       .  S
C501        C502   1.386       .  A
C501       C1744   1.491       .  S
C502        H504   1.081       .  S
N505        N506   1.321       .  A
N505        C509   1.348       .  A
N505       Cu513   2.077       .  S
N506        C507   1.341       .  A
N506       Cu512   2.060       .  S
C507        C508   1.381       .  A
C507        H510   1.083       .  S
C508        C509   1.386       .  A
C508        C533   1.484       .  S
C509        H511   1.082       .  S
Cu512       N515   2.060       .  S
Cu513       N523   2.079       .  S
Cu514       N516   2.089       .  S
Cu514       N522   2.090       .  S
N515        N516   1.321       .  A
N515        C519   1.341       .  A
N516        C517   1.349       .  A
C517        C518   1.390       .  A
C517        H520   1.082       .  S
C518        C519   1.381       .  A
C518        C596   1.490       .  S
C519        H521   1.083       .  S
N522        N523   1.325       .  A
N522        C526   1.347       .  A
N523        C524   1.345       .  A
C524        C525   1.383       .  A
C524        H527   1.083       .  S
C525        C526   1.386       .  A
C525       C1429   1.491       .  S
C526        H528   1.083       .  S
C529        C530   1.411       .  A
C529        C534   1.407       .  A
C529        C547   1.452       .  S
C530        C531   1.411       .  A
C530        C535   1.494       .  S
C531        C532   1.412       .  A
C531        C536   1.450       .  S
C532        C533   1.414       .  A
C532        C548   1.450       .  S
C533        C534   1.413       .  A
C534        C537   1.451       .  S
C535        C538   1.411       .  A
C535        C542   1.410       .  A
C536        N553   1.157       .  T
C537        N555   1.157   1_556  T
C538        C539   1.411       .  A
C538        C543   1.450       .  S
C539        C540   1.414       .  A
C539        C545   1.450       .  S
C540        C541   1.413       .  A
C541        C542   1.407       .  A
C541        C544   1.452       .  S
C542        C546   1.451       .  S
C543        N550   1.157       .  T
C544        N551   1.157       .  T
C545        N549   1.157       .  T
C546        N552   1.157       .  T
C547        N556   1.157       .  T
C548        N554   1.157       .  T
C557        C558   1.409       .  A
C557        C562   1.411       .  A
C557        C575   1.451       .  S
C558        C559   1.409       .  A
C558        C563   1.492   1_655  S
C559        C560   1.409       .  A
C559        C564   1.451       .  S
C560        C561   1.416       .  A
C560        C576   1.451       .  S
C561        C562   1.415       .  A
C562        C565   1.450       .  S
C563        C566   1.410       .  A
C563        C570   1.409       .  A
C564        N581   1.157   1_655  T
C565        N583   1.157       .  T
C566        C567   1.407       .  A
C566        C571   1.451       .  S
C567        C568   1.414       .  A
C567        C573   1.452       .  S
C568        C569   1.416       .  A
C569        C570   1.412       .  A
C569        C572   1.450       .  S
C570        C574   1.450       .  S
C571        N578   1.157   1_455  T
C572        N579   1.157       .  T
C573        N577   1.157   1_556  T
C574        N580   1.157       .  T
C575        N584   1.157       .  T
C576        N582   1.157       .  T
C585        C586   1.410       .  A
C585        C590   1.412       .  A
C585        C603   1.450       .  S
C586        C587   1.410       .  A
C586        C591   1.496   1_655  S
C587        C588   1.409       .  A
C587        C592   1.451       .  S
C588        C589   1.415       .  A
C588        C604   1.451   1_556  S
C589        C590   1.414       .  A
C590        C593   1.450       .  S
C591        C594   1.409       .  A
C591        C598   1.411       .  A
C592        N609   1.157   1_656  T
C593        N611   1.157       .  T
C594        C595   1.409       .  A
C594        C599   1.451       .  S
C595        C596   1.416       .  A
C595        C601   1.451       .  S
C596        C597   1.415       .  A
C597        C598   1.412       .  A
C597        C600   1.450       .  S
C598        C602   1.450       .  S
C599        N606   1.157   1_455  T
C600        N607   1.157   1_556  T
C601        N605   1.157       .  T
C602        N608   1.157   1_556  T
C603        N612   1.157       .  T
C604        N610   1.157       .  T
C613        C614   1.410       .  A
C613        C618   1.406       .  A
C613        C631   1.452       .  S
C614        C615   1.411       .  A
C614        C619   1.495       .  S
C615        C616   1.413       .  A
C615        C620   1.450       .  S
C616        C617   1.415       .  A
C616        C632   1.450       .  S
C617        C618   1.415       .  A
C618        C621   1.452       .  S
C619        C622   1.411       .  A
C619        C626   1.411       .  A
C620        N637   1.157   1_556  T
C621        N639   1.157       .  T
C622        C623   1.411       .  A
C622        C627   1.450       .  S
C623        C624   1.415       .  A
C623        C629   1.450       .  S
C624        C625   1.414       .  A
C625        C626   1.409       .  A
C625        C628   1.451       .  S
C626        C630   1.452   1_556  S
C627        N634   1.157       .  T
C628        N635   1.157   1_556  T
C629        N633   1.157       .  T
C630        N636   1.157       .  T
C631        N640   1.157       .  T
C632        N638   1.157   1_556  T
C641        C642   1.410       .  A
C641        C646   1.409       .  A
C641        C659   1.451       .  S
C642        C643   1.410       .  A
C642        C647   1.492       .  S
C643        C644   1.410       .  A
C643        C648   1.451       .  S
C644        C645   1.414       .  A
C644        C660   1.451       .  S
C645        C646   1.416       .  A
C646        C649   1.451       .  S
C647        C650   1.410   1_565  A
C647        C654   1.412       .  A
C648        N665   1.157   1_565  T
C649        N667   1.157       .  T
C650        C651   1.407       .  A
C650        C655   1.451       .  S
C651        C652   1.411       .  A
C651        C657   1.450       .  S
C652        C653   1.411       .  A
C653        C654   1.411   1_545  A
C653        C656   1.450       .  S
C654        C658   1.450       .  S
C655        N662   1.157       .  T
C656        N663   1.157   1_545  T
C657        N661   1.157       .  T
C658        N664   1.157       .  T
C659        N668   1.157       .  T
C660        N666   1.157       .  T
C669        C670   1.410       .  A
C669        C674   1.411       .  A
C669        C687   1.451       .  S
C670        C671   1.410       .  A
C670        C675   1.494       .  S
C671        C672   1.410       .  A
C671        C676   1.451   1_556  S
C672        C673   1.414       .  A
C672        C688   1.450   1_556  S
C673        C674   1.415       .  A
C674        C677   1.451       .  S
C675        C678   1.411       .  A
C675        C682   1.411       .  A
C676        N693   1.157       .  T
C677        N695   1.157       .  T
C678        C679   1.410       .  A
C678        C683   1.450       .  S
C679        C680   1.411       .  A
C679        C685   1.450       .  S
C680        C681   1.411       .  A
C681        C682   1.410       .  A
C681        C684   1.451       .  S
C682        C686   1.450       .  S
C683        N690   1.157       .  T
C684        N691   1.157   1_556  T
C685        N689   1.157       .  T
C686        N692   1.157   1_556  T
C687        N696   1.157       .  T
C688        N694   1.157       .  T
C697        C698   1.411       .  A
C697        C702   1.410       .  A
C697        C715   1.450       .  S
C698        C699   1.410       .  A
C698        C703   1.493       .  S
C699        C700   1.409       .  A
C699        C704   1.451       .  S
C700        C701   1.412       .  A
C700        C716   1.450       .  S
C701        C702   1.412       .  A
C702        C705   1.451       .  S
C703        C706   1.411       .  A
C703        C710   1.411       .  A
C704        N721   1.157       .  T
C705        N723   1.157       .  T
C706        C707   1.409       .  A
C706        C711   1.450       .  S
C707        C708   1.411       .  A
C707        C713   1.451       .  S
C708        C709   1.411       .  A
C709        C710   1.409       .  A
C709        C712   1.451       .  S
C710        C714   1.450       .  S
C711        N718   1.157       .  T
C712        N719   1.157       .  T
C713        N717   1.157       .  T
C714        N720   1.157       .  T
C715        N724   1.157       .  T
C716        N722   1.157       .  T
C725        C726   1.411       .  A
C725        C730   1.410       .  A
C725        C743   1.450       .  S
C726        C727   1.411       .  A
C726        C731   1.494       .  S
C727        C728   1.410       .  A
C727        C732   1.450       .  S
C728        C729   1.411       .  A
C728        C744   1.451       .  S
C729        C730   1.412       .  A
C730        C733   1.451       .  S
C731        C734   1.411       .  A
C731        C738   1.411   1_565  A
C732        N749   1.157       .  T
C733        N751   1.157       .  T
C734        C735   1.411   1_565  A
C734        C739   1.450       .  S
C735        C736   1.411       .  A
C735        C741   1.450   1_554  S
C736        C737   1.411       .  A
C737        C738   1.409       .  A
C737        C740   1.451       .  S
C738        C742   1.450       .  S
C739        N746   1.157       .  T
C740        N747   1.157       .  T
C741        N745   1.157       .  T
C742        N748   1.157       .  T
C743        N752   1.157   1_565  T
C744        N750   1.157       .  T
C753        C754   1.411       .  A
C753        C758   1.411       .  A
C753        C771   1.450       .  S
C754        C755   1.412       .  A
C754        C759   1.497       .  S
C755        C756   1.411       .  A
C755        C760   1.450       .  S
C756        C757   1.411       .  A
C756        C772   1.450       .  S
C757        C758   1.411       .  A
C758        C761   1.450       .  S
C759        C762   1.411       .  A
C759        C766   1.411       .  A
C760        N777   1.157       .  T
C761        N779   1.157       .  T
C762        C763   1.411       .  A
C762        C767   1.451       .  S
C763        C764   1.415       .  A
C763        C769   1.451       .  S
C764        C765   1.413       .  A
C765        C766   1.411       .  A
C765        C768   1.450       .  S
C766        C770   1.450       .  S
C767        N774   1.157       .  T
C768        N775   1.157       .  T
C769        N773   1.157       .  T
C770        N776   1.157       .  T
C771        N780   1.157       .  T
C772        N778   1.157       .  T
C781        C782   1.410       .  A
C781        C786   1.409       .  A
C781        C799   1.452       .  S
C782        C783   1.411       .  A
C782        C787   1.497       .  S
C783        C784   1.410       .  A
C783        C788   1.451       .  S
C784        C785   1.417       .  A
C784        C800   1.452       .  S
C785        C786   1.417       .  A
C786        C789   1.449       .  S
C787        C790   1.409       .  A
C787        C794   1.411       .  A
C788        N805   1.157       .  T
C789        N807   1.157       .  T
C790        C791   1.409       .  A
C790        C795   1.452       .  S
C791        C792   1.419       .  A
C791        C797   1.451       .  S
C792        C793   1.419       .  A
C793        C794   1.411       .  A
C793        C796   1.451       .  S
C794        C798   1.452       .  S
C795        N802   1.157       .  T
C796        N803   1.157       .  T
C797        N801   1.157       .  T
C798        N804   1.157       .  T
C799        N808   1.157       .  T
C800        N806   1.157       .  T
C809        C810   1.411       .  A
C809        C814   1.410       .  A
C809        C827   1.451       .  S
C810        C811   1.410       .  A
C810        C815   1.496       .  S
C811        C812   1.412       .  A
C811        C816   1.450       .  S
C812        C813   1.416       .  A
C812        C828   1.450       .  S
C813        C814   1.414       .  A
C814        C817   1.451       .  S
C815        C818   1.411       .  A
C815        C822   1.410       .  A
C816        N833   1.157       .  T
C817        N835   1.157       .  T
C818        C819   1.413       .  A
C818        C823   1.449       .  S
C819        C820   1.412       .  A
C819        C825   1.450       .  S
C820        C821   1.413       .  A
C821        C822   1.408       .  A
C821        C824   1.451       .  S
C822        C826   1.451       .  S
C823        N830   1.157       .  T
C824        N831   1.157       .  T
C825        N829   1.157       .  T
C826        N832   1.157       .  T
C827        N836   1.157       .  T
C828        N834   1.157       .  T
C837        C838   1.410       .  A
C837        C842   1.411       .  A
C837        C855   1.450       .  S
C838        C839   1.409       .  A
C838        C843   1.493       .  S
C839        C840   1.409       .  A
C839        C844   1.451       .  S
C840        C841   1.417       .  A
C840        C856   1.451       .  S
C841        C842   1.415       .  A
C842        C845   1.450       .  S
C843        C846   1.410       .  A
C843        C850   1.410       .  A
C844        N861   1.157       .  T
C845        N863   1.157       .  T
C846        C847   1.411       .  A
C846        C851   1.450       .  S
C847        C848   1.413       .  A
C847        C853   1.450       .  S
C848        C849   1.414       .  A
C849        C850   1.408       .  A
C849        C852   1.452       .  S
C850        C854   1.451       .  S
C851        N858   1.157       .  T
C852        N859   1.157       .  T
C853        N857   1.157       .  T
C854        N860   1.157       .  T
C855        N864   1.157       .  T
C856        N862   1.157       .  T
C865        C866   1.412       .  A
C865        C870   1.415       .  A
C865        C883   1.450       .  S
C866        C867   1.411       .  A
C866        C871   1.500       .  S
C867        C868   1.409       .  A
C867        C872   1.451       .  S
C868        C869   1.415       .  A
C868        C884   1.451       .  S
C869        C870   1.416       .  A
C870        C873   1.450       .  S
C871        C874   1.412       .  A
C871        C878   1.412       .  A
C872        N889   1.157       .  T
C873        N891   1.157       .  T
C874        C875   1.411       .  A
C874        C879   1.451       .  S
C875        C876   1.413       .  A
C875        C881   1.451       .  S
C876        C877   1.414       .  A
C877        C878   1.413       .  A
C877        C880   1.450       .  S
C878        C882   1.450       .  S
C879        N886   1.157       .  T
C880        N887   1.157       .  T
C881        N885   1.157       .  T
C882        N888   1.157       .  T
C883        N892   1.157       .  T
C884        N890   1.157       .  T
C893        C894   1.412       .  A
C893        C898   1.413       .  A
C893        C911   1.450       .  S
C894        C895   1.411       .  A
C894        C899   1.499       .  S
C895        C896   1.411       .  A
C895        C900   1.451       .  S
C896        C897   1.414       .  A
C896        C912   1.451       .  S
C897        C898   1.413       .  A
C898        C901   1.450       .  S
C899        C902   1.411       .  A
C899        C906   1.411       .  A
C900        N917   1.157       .  T
C901        N919   1.157       .  T
C902        C903   1.409       .  A
C902        C907   1.452       .  S
C903        C904   1.416       .  A
C903        C909   1.451       .  S
C904        C905   1.416       .  A
C905        C906   1.414       .  A
C905        C908   1.450       .  S
C906        C910   1.450       .  S
C907        N914   1.157       .  T
C908        N915   1.157       .  T
C909        N913   1.157       .  T
C910        N916   1.157       .  T
C911        N920   1.157       .  T
C912        N918   1.157       .  T
C921        C922   1.409       .  A
C921        C926   1.408       .  A
C921        C939   1.451       .  S
C922        C923   1.410       .  A
C922        C927   1.494       .  S
C923        C924   1.412       .  A
C923        C928   1.450       .  S
C924        C925   1.415       .  A
C924        C940   1.450       .  S
C925        C926   1.415       .  A
C926        C929   1.451       .  S
C927        C930   1.409       .  A
C927        C934   1.409       .  A
C928        N945   1.157       .  T
C929        N947   1.157       .  T
C930        C931   1.408       .  A
C930        C935   1.452       .  S
C931        C932   1.416       .  A
C931        C937   1.451       .  S
C932        C933   1.417       .  A
C933        C934   1.413       .  A
C933        C936   1.450       .  S
C934        C938   1.450       .  S
C935        N942   1.157       .  T
C936        N943   1.157       .  T
C937        N941   1.157       .  T
C938        N944   1.157       .  T
C939        N948   1.157       .  T
C940        N946   1.157       .  T
C949        C950   1.409       .  A
C949        C954   1.408       .  A
C949        C967   1.452       .  S
C950        C951   1.409       .  A
C950        C955   1.492   1_655  S
C951        C952   1.411       .  A
C951        C956   1.450       .  S
C952        C953   1.415       .  A
C952        C968   1.450       .  S
C953        C954   1.416       .  A
C954        C957   1.452       .  S
C955        C958   1.411       .  A
C955        C962   1.409       .  A
C956        N973   1.157       .  T
C957        N975   1.157       .  T
C958        C959   1.412       .  A
C958        C963   1.450       .  S
C959        C960   1.413       .  A
C959        C965   1.450       .  S
C960        C961   1.412       .  A
C961        C962   1.407       .  A
C961        C964   1.451       .  S
C962        C966   1.451       .  S
C963        N970   1.157       .  T
C964        N971   1.157       .  T
C965        N969   1.157       .  T
C966        N972   1.157       .  T
C967        N976   1.157   1_655  T
C968        N974   1.157       .  T
C977        C978   1.411       .  A
C977        C982   1.410       .  A
C977        C995   1.451       .  S
C978        C979   1.411       .  A
C978        C983   1.497       .  S
C979        C980   1.411       .  A
C979        C984   1.451       .  S
C980        C981   1.416       .  A
C980        C996   1.451       .  S
C981        C982   1.415       .  A
C982        C985   1.451       .  S
C983        C986   1.412       .  A
C983        C990   1.412       .  A
C984       N1001   1.157       .  T
C985       N1003   1.157       .  T
C986        C987   1.410       .  A
C986        C991   1.451       .  S
C987        C988   1.413       .  A
C987        C993   1.451       .  S
C988        C989   1.413       .  A
C989        C990   1.410       .  A
C989        C992   1.451       .  S
C990        C994   1.450       .  S
C991        N998   1.157       .  T
C992        N999   1.157       .  T
C993        N997   1.157       .  T
C994       N1000   1.157       .  T
C995       N1004   1.157       .  T
C996       N1002   1.157       .  T
C1005      C1006   1.410       .  A
C1005      C1010   1.410       .  A
C1005      C1023   1.450       .  S
C1006      C1007   1.411       .  A
C1006      C1011   1.490   1_655  S
C1007      C1008   1.407       .  A
C1007      C1012   1.451       .  S
C1008      C1009   1.411       .  A
C1008      C1024   1.451       .  S
C1009      C1010   1.412       .  A
C1010      C1013   1.450       .  S
C1011      C1014   1.408       .  A
C1011      C1018   1.409       .  A
C1012      N1029   1.157   1_655  T
C1013      N1031   1.157       .  T
C1014      C1015   1.407       .  A
C1014      C1019   1.451       .  S
C1015      C1016   1.416       .  A
C1015      C1021   1.451       .  S
C1016      C1017   1.416       .  A
C1017      C1018   1.411       .  A
C1017      C1020   1.450       .  S
C1018      C1022   1.451       .  S
C1019      N1026   1.157   1_455  T
C1020      N1027   1.157       .  T
C1021      N1025   1.157       .  T
C1022      N1028   1.157       .  T
C1023      N1032   1.157       .  T
C1024      N1030   1.157       .  T
C1033      C1034   1.410       .  A
C1033      C1038   1.412       .  A
C1033      C1051   1.450       .  S
C1034      C1035   1.410       .  A
C1034      C1039   1.494       .  S
C1035      C1036   1.408       .  A
C1035      C1040   1.451       .  S
C1036      C1037   1.415       .  A
C1036      C1052   1.451       .  S
C1037      C1038   1.414       .  A
C1038      C1041   1.450       .  S
C1039      C1042   1.411       .  A
C1039      C1046   1.410       .  A
C1040      N1057   1.157       .  T
C1041      N1059   1.157       .  T
C1042      C1043   1.412       .  A
C1042      C1047   1.450       .  S
C1043      C1044   1.413       .  A
C1043      C1049   1.450       .  S
C1044      C1045   1.413       .  A
C1045      C1046   1.407       .  A
C1045      C1048   1.451       .  S
C1046      C1050   1.451       .  S
C1047      N1054   1.157       .  T
C1048      N1055   1.157       .  T
C1049      N1053   1.157       .  T
C1050      N1056   1.157       .  T
C1051      N1060   1.157       .  T
C1052      N1058   1.157       .  T
C1061      C1062   1.412       .  A
C1061      C1066   1.411       .  A
C1061      C1079   1.450       .  S
C1062      C1063   1.411       .  A
C1062      C1067   1.497       .  S
C1063      C1064   1.410       .  A
C1063      C1068   1.450       .  S
C1064      C1065   1.411       .  A
C1064      C1080   1.450       .  S
C1065      C1066   1.411       .  A
C1066      C1069   1.450       .  S
C1067      C1070   1.409       .  A
C1067      C1074   1.410       .  A
C1068      N1085   1.157       .  T
C1069      N1087   1.157       .  T
C1070      C1071   1.411       .  A
C1070      C1075   1.451       .  S
C1071      C1072   1.417       .  A
C1071      C1077   1.451       .  S
C1072      C1073   1.416       .  A
C1073      C1074   1.412       .  A
C1073      C1076   1.450       .  S
C1074      C1078   1.451       .  S
C1075      N1082   1.157       .  T
C1076      N1083   1.157       .  T
C1077      N1081   1.157       .  T
C1078      N1084   1.157       .  T
C1079      N1088   1.157       .  T
C1080      N1086   1.157       .  T
C1089      C1090   1.412       .  A
C1089      C1094   1.409       .  A
C1089      C1107   1.450       .  S
C1090      C1091   1.412       .  A
C1090      C1095   1.496       .  S
C1091      C1092   1.411       .  A
C1091      C1096   1.450       .  S
C1092      C1093   1.412       .  A
C1092      C1108   1.451       .  S
C1093      C1094   1.411       .  A
C1094      C1097   1.450       .  S
C1095      C1098   1.412       .  A
C1095      C1102   1.412       .  A
C1096      N1113   1.157       .  T
C1097      N1115   1.157       .  T
C1098      C1099   1.410       .  A
C1098      C1103   1.450       .  S
C1099      C1100   1.413       .  A
C1099      C1105   1.451       .  S
C1100      C1101   1.413       .  A
C1101      C1102   1.410       .  A
C1101      C1104   1.451       .  S
C1102      C1106   1.451       .  S
C1103      N1110   1.157       .  T
C1104      N1111   1.157       .  T
C1105      N1109   1.157       .  T
C1106      N1112   1.157       .  T
C1107      N1116   1.157       .  T
C1108      N1114   1.157       .  T
C1117      C1118   1.411       .  A
C1117      C1122   1.408       .  A
C1117      C1135   1.451       .  S
C1118      C1119   1.411       .  A
C1118      C1123   1.493       .  S
C1119      C1120   1.410       .  A
C1119      C1124   1.450       .  S
C1120      C1121   1.409       .  A
C1120      C1136   1.450       .  S
C1121      C1122   1.411       .  A
C1122      C1125   1.451       .  S
C1123      C1126   1.409       .  A
C1123      C1130   1.409       .  A
C1124      N1141   1.157       .  T
C1125      N1143   1.157       .  T
C1126      C1127   1.410       .  A
C1126      C1131   1.451       .  S
C1127      C1128   1.415       .  A
C1127      C1133   1.451       .  S
C1128      C1129   1.416       .  A
C1129      C1130   1.410       .  A
C1129      C1132   1.451       .  S
C1130      C1134   1.451       .  S
C1131      N1138   1.157       .  T
C1132      N1139   1.157       .  T
C1133      N1137   1.157       .  T
C1134      N1140   1.157       .  T
C1135      N1144   1.157       .  T
C1136      N1142   1.157       .  T
C1145      C1146   1.410       .  A
C1145      C1150   1.406       .  A
C1145      C1163   1.451       .  S
C1146      C1147   1.411       .  A
C1146      C1151   1.489       .  S
C1147      C1148   1.409       .  A
C1147      C1152   1.450       .  S
C1148      C1149   1.410       .  A
C1148      C1164   1.450       .  S
C1149      C1150   1.411       .  A
C1150      C1153   1.451       .  S
C1151      C1154   1.411       .  A
C1151      C1158   1.411       .  A
C1152      N1169   1.157       .  T
C1153      N1171   1.157       .  T
C1154      C1155   1.407       .  A
C1154      C1159   1.451       .  S
C1155      C1156   1.410       .  A
C1155      C1161   1.450       .  S
C1156      C1157   1.410       .  A
C1157      C1158   1.408       .  A
C1157      C1160   1.451       .  S
C1158      C1162   1.450       .  S
C1159      N1166   1.157       .  T
C1160      N1167   1.157       .  T
C1161      N1165   1.157       .  T
C1162      N1168   1.157       .  T
C1163      N1172   1.157       .  T
C1164      N1170   1.157       .  T
C1173      C1174   1.410       .  A
C1173      C1178   1.409       .  A
C1173      C1191   1.451       .  S
C1174      C1175   1.411       .  A
C1174      C1179   1.495       .  S
C1175      C1176   1.412       .  A
C1175      C1180   1.450       .  S
C1176      C1177   1.413       .  A
C1176      C1192   1.450       .  S
C1177      C1178   1.413       .  A
C1178      C1181   1.451       .  S
C1179      C1182   1.411       .  A
C1179      C1186   1.411       .  A
C1180      N1197   1.157       .  T
C1181      N1199   1.157       .  T
C1182      C1183   1.411       .  A
C1182      C1187   1.450       .  S
C1183      C1184   1.412       .  A
C1183      C1189   1.450       .  S
C1184      C1185   1.413       .  A
C1185      C1186   1.410       .  A
C1185      C1188   1.451       .  S
C1186      C1190   1.450       .  S
C1187      N1194   1.157       .  T
C1188      N1195   1.157   1_556  T
C1189      N1193   1.157       .  T
C1190      N1196   1.157   1_556  T
C1191      N1200   1.157       .  T
C1192      N1198   1.157       .  T
C1201      C1202   1.412       .  A
C1201      C1206   1.413       .  A
C1201      C1219   1.450       .  S
C1202      C1203   1.410       .  A
C1202      C1207   1.497       .  S
C1203      C1204   1.410       .  A
C1203      C1208   1.451       .  S
C1204      C1205   1.415       .  A
C1204      C1220   1.451       .  S
C1205      C1206   1.413       .  A
C1206      C1209   1.450       .  S
C1207      C1210   1.411       .  A
C1207      C1214   1.411       .  A
C1208      N1225   1.157       .  T
C1209      N1227   1.157       .  T
C1210      C1211   1.412       .  A
C1210      C1215   1.450       .  S
C1211      C1212   1.415       .  A
C1211      C1217   1.451       .  S
C1212      C1213   1.413       .  A
C1213      C1214   1.410       .  A
C1213      C1216   1.451       .  S
C1214      C1218   1.451       .  S
C1215      N1222   1.157       .  T
C1216      N1223   1.157       .  T
C1217      N1221   1.157       .  T
C1218      N1224   1.157       .  T
C1219      N1228   1.157       .  T
C1220      N1226   1.157       .  T
C1229      C1230   1.411       .  A
C1229      C1234   1.410       .  A
C1229      C1247   1.452       .  S
C1230      C1231   1.413       .  A
C1230      C1235   1.504       .  S
C1231      C1232   1.410   1_554  A
C1231      C1236   1.452       .  S
C1232      C1233   1.421       .  A
C1232      C1248   1.452       .  S
C1233      C1234   1.422   1_556  A
C1234      C1237   1.451       .  S
C1235      C1238   1.413       .  A
C1235      C1242   1.414       .  A
C1236      N1253   1.157       .  T
C1237      N1255   1.158       .  T
C1238      C1239   1.409       .  A
C1238      C1243   1.452       .  S
C1239      C1240   1.418       .  A
C1239      C1245   1.451       .  S
C1240      C1241   1.419       .  A
C1241      C1242   1.410       .  A
C1241      C1244   1.452       .  S
C1242      C1246   1.452       .  S
C1243      N1250   1.157       .  T
C1244      N1251   1.158       .  T
C1245      N1249   1.157       .  T
C1246      N1252   1.157       .  T
C1247      N1256   1.157       .  T
C1248      N1254   1.158       .  T
C1257      C1258   1.411       .  A
C1257      C1262   1.410       .  A
C1257      C1275   1.451       .  S
C1258      C1259   1.411       .  A
C1258      C1263   1.496       .  S
C1259      C1260   1.409       .  A
C1259      C1264   1.450       .  S
C1260      C1261   1.413       .  A
C1260      C1276   1.451       .  S
C1261      C1262   1.412       .  A
C1262      C1265   1.450       .  S
C1263      C1266   1.411       .  A
C1263      C1270   1.411       .  A
C1264      N1281   1.157       .  T
C1265      N1283   1.157       .  T
C1266      C1267   1.410       .  A
C1266      C1271   1.451       .  S
C1267      C1268   1.413       .  A
C1267      C1273   1.451       .  S
C1268      C1269   1.414       .  A
C1269      C1270   1.411       .  A
C1269      C1272   1.451       .  S
C1270      C1274   1.451       .  S
C1271      N1278   1.157       .  T
C1272      N1279   1.157       .  T
C1273      N1277   1.157       .  T
C1274      N1280   1.157       .  T
C1275      N1284   1.157       .  T
C1276      N1282   1.157       .  T
C1285      C1286   1.410       .  A
C1285      C1290   1.413       .  A
C1285      C1303   1.450       .  S
C1286      C1287   1.410       .  A
C1286      C1291   1.497       .  S
C1287      C1288   1.410       .  A
C1287      C1292   1.451       .  S
C1288      C1289   1.415       .  A
C1288      C1304   1.451       .  S
C1289      C1290   1.414       .  A
C1290      C1293   1.450       .  S
C1291      C1294   1.409       .  A
C1291      C1298   1.410       .  A
C1292      N1309   1.157       .  T
C1293      N1311   1.157       .  T
C1294      C1295   1.409       .  A
C1294      C1299   1.451       .  S
C1295      C1296   1.417       .  A
C1295      C1301   1.451       .  S
C1296      C1297   1.416       .  A
C1297      C1298   1.414       .  A
C1297      C1300   1.450       .  S
C1298      C1302   1.450       .  S
C1299      N1306   1.157       .  T
C1300      N1307   1.157       .  T
C1301      N1305   1.157       .  T
C1302      N1308   1.157       .  T
C1303      N1312   1.157       .  T
C1304      N1310   1.157       .  T
C1313      C1314   1.412       .  A
C1313      C1318   1.413       .  A
C1313      C1331   1.452       .  S
C1314      C1315   1.412       .  A
C1314      C1319   1.507       .  S
C1315      C1316   1.414       .  A
C1315      C1320   1.452       .  S
C1316      C1317   1.421       .  A
C1316      C1332   1.450       .  S
C1317      C1318   1.420       .  A
C1318      C1321   1.450       .  S
C1319      C1322   1.412       .  A
C1319      C1326   1.414       .  A
C1320      N1337   1.157       .  T
C1321      N1339   1.157       .  T
C1322      C1323   1.412       .  A
C1322      C1327   1.451       .  S
C1323      C1324   1.420       .  A
C1323      C1329   1.452       .  S
C1324      C1325   1.418       .  A
C1325      C1326   1.413       .  A
C1325      C1328   1.451       .  S
C1326      C1330   1.451       .  S
C1327      N1334   1.157       .  T
C1328      N1335   1.157       .  T
C1329      N1333   1.157       .  T
C1330      N1336   1.157       .  T
C1331      N1340   1.157       .  T
C1332      N1338   1.157       .  T
C1341      C1342   1.412       .  A
C1341      C1346   1.414       .  A
C1341      C1359   1.450       .  S
C1342      C1343   1.412       .  A
C1342      C1347   1.501       .  S
C1343      C1344   1.410       .  A
C1343      C1348   1.452       .  S
C1344      C1345   1.417       .  A
C1344      C1360   1.452       .  S
C1345      C1346   1.416       .  A
C1346      C1349   1.450       .  S
C1347      C1350   1.413       .  A
C1347      C1354   1.412       .  A
C1348      N1365   1.157       .  T
C1349      N1367   1.157       .  T
C1350      C1351   1.414       .  A
C1350      C1355   1.450       .  S
C1351      C1352   1.415       .  A
C1351      C1357   1.450       .  S
C1352      C1353   1.415       .  A
C1353      C1354   1.410       .  A
C1353      C1356   1.451       .  S
C1354      C1358   1.451       .  S
C1355      N1362   1.157       .  T
C1356      N1363   1.157       .  T
C1357      N1361   1.157       .  T
C1358      N1364   1.157       .  T
C1359      N1368   1.157       .  T
C1360      N1366   1.157       .  T
C1369      C1370   1.411       .  A
C1369      C1374   1.411       .  A
C1369      C1387   1.451       .  S
C1370      C1371   1.412       .  A
C1370      C1375   1.500       .  S
C1371      C1372   1.413       .  A
C1371      C1376   1.450       .  S
C1372      C1373   1.415       .  A
C1372      C1388   1.450       .  S
C1373      C1374   1.416       .  A
C1374      C1377   1.451       .  S
C1375      C1378   1.411       .  A
C1375      C1382   1.412       .  A
C1376      N1393   1.157       .  T
C1377      N1395   1.157       .  T
C1378      C1379   1.410       .  A
C1378      C1383   1.452       .  S
C1379      C1380   1.416       .  A
C1379      C1385   1.451       .  S
C1380      C1381   1.414       .  A
C1381      C1382   1.414       .  A
C1381      C1384   1.450       .  S
C1382      C1386   1.450       .  S
C1383      N1390   1.157       .  T
C1384      N1391   1.157       .  T
C1385      N1389   1.157       .  T
C1386      N1392   1.157       .  T
C1387      N1396   1.157       .  T
C1388      N1394   1.157       .  T
C1397      C1398   1.410       .  A
C1397      C1402   1.412       .  A
C1397      C1415   1.450       .  S
C1398      C1399   1.409       .  A
C1398      C1403   1.493       .  S
C1399      C1400   1.408       .  A
C1399      C1404   1.451       .  S
C1400      C1401   1.415       .  A
C1400      C1416   1.452       .  S
C1401      C1402   1.414       .  A
C1402      C1405   1.450       .  S
C1403      C1406   1.409       .  A
C1403      C1410   1.410       .  A
C1404      N1421   1.157       .  T
C1405      N1423   1.157       .  T
C1406      C1407   1.411       .  A
C1406      C1411   1.450       .  S
C1407      C1408   1.415       .  A
C1407      C1413   1.450       .  S
C1408      C1409   1.415       .  A
C1409      C1410   1.409       .  A
C1409      C1412   1.451       .  S
C1410      C1414   1.452       .  S
C1411      N1418   1.157       .  T
C1412      N1419   1.157       .  T
C1413      N1417   1.157       .  T
C1414      N1420   1.157       .  T
C1415      N1424   1.157       .  T
C1416      N1422   1.157       .  T
C1425      C1426   1.411       .  A
C1425      C1430   1.413       .  A
C1425      C1443   1.450       .  S
C1426      C1427   1.411       .  A
C1426      C1431   1.499       .  S
C1427      C1428   1.411       .  A
C1427      C1432   1.451       .  S
C1428      C1429   1.415       .  A
C1428      C1444   1.450       .  S
C1429      C1430   1.416       .  A
C1430      C1433   1.451       .  S
C1431      C1434   1.412       .  A
C1431      C1438   1.412       .  A
C1432      N1449   1.157   1_556  T
C1433      N1451   1.157       .  T
C1434      C1435   1.411       .  A
C1434      C1439   1.450       .  S
C1435      C1436   1.413       .  A
C1435      C1441   1.451       .  S
C1436      C1437   1.412       .  A
C1437      C1438   1.412       .  A
C1437      C1440   1.450       .  S
C1438      C1442   1.450       .  S
C1439      N1446   1.157       .  T
C1440      N1447   1.157       .  T
C1441      N1445   1.157       .  T
C1442      N1448   1.157       .  T
C1443      N1452   1.157       .  T
C1444      N1450   1.157   1_556  T
C1453      C1454   1.410       .  A
C1453      C1458   1.410       .  A
C1453      C1471   1.450       .  S
C1454      C1455   1.411       .  A
C1454      C1459   1.493       .  S
C1455      C1456   1.409       .  A
C1455      C1460   1.451       .  S
C1456      C1457   1.412       .  A
C1456      C1472   1.451       .  S
C1457      C1458   1.413       .  A
C1458      C1461   1.451       .  S
C1459      C1462   1.409       .  A
C1459      C1466   1.409       .  A
C1460      N1477   1.157       .  T
C1461      N1479   1.157       .  T
C1462      C1463   1.410       .  A
C1462      C1467   1.451       .  S
C1463      C1464   1.417       .  A
C1463      C1469   1.451       .  S
C1464      C1465   1.417       .  A
C1465      C1466   1.410       .  A
C1465      C1468   1.451       .  S
C1466      C1470   1.451       .  S
C1467      N1474   1.157       .  T
C1468      N1475   1.157       .  T
C1469      N1473   1.157       .  T
C1470      N1476   1.157       .  T
C1471      N1480   1.157       .  T
C1472      N1478   1.157       .  T
C1481      C1482   1.410       .  A
C1481      C1486   1.409       .  A
C1481      C1499   1.450       .  S
C1482      C1483   1.410       .  A
C1482      C1487   1.490       .  S
C1483      C1484   1.408       .  A
C1483      C1488   1.450       .  S
C1484      C1485   1.411       .  A
C1484      C1500   1.451       .  S
C1485      C1486   1.411       .  A
C1486      C1489   1.450       .  S
C1487      C1490   1.409       .  A
C1487      C1494   1.411       .  A
C1488      N1505   1.157       .  T
C1489      N1507   1.157       .  T
C1490      C1491   1.408       .  A
C1490      C1495   1.450       .  S
C1491      C1492   1.413       .  A
C1491      C1497   1.451       .  S
C1492      C1493   1.412       .  A
C1493      C1494   1.409       .  A
C1493      C1496   1.451       .  S
C1494      C1498   1.451       .  S
C1495      N1502   1.157       .  T
C1496      N1503   1.157       .  T
C1497      N1501   1.157       .  T
C1498      N1504   1.157       .  T
C1499      N1508   1.157       .  T
C1500      N1506   1.157       .  T
C1509      C1510   1.411       .  A
C1509      C1514   1.413       .  A
C1509      C1527   1.450       .  S
C1510      C1511   1.411       .  A
C1510      C1515   1.499       .  S
C1511      C1512   1.411       .  A
C1511      C1516   1.450       .  S
C1512      C1513   1.413       .  A
C1512      C1528   1.451       .  S
C1513      C1514   1.414       .  A
C1514      C1517   1.450       .  S
C1515      C1518   1.411       .  A
C1515      C1522   1.410       .  A
C1516      N1533   1.157       .  T
C1517      N1535   1.157       .  T
C1518      C1519   1.412       .  A
C1518      C1523   1.450       .  S
C1519      C1520   1.414       .  A
C1519      C1525   1.451       .  S
C1520      C1521   1.415       .  A
C1521      C1522   1.412       .  A
C1521      C1524   1.451       .  S
C1522      C1526   1.450       .  S
C1523      N1530   1.157       .  T
C1524      N1531   1.157       .  T
C1525      N1529   1.157       .  T
C1526      N1532   1.157       .  T
C1527      N1536   1.157       .  T
C1528      N1534   1.157       .  T
C1537      C1538   1.412       .  A
C1537      C1542   1.408       .  A
C1537      C1555   1.451   1_565  S
C1538      C1539   1.411       .  A
C1538      C1543   1.493       .  S
C1539      C1540   1.410       .  A
C1539      C1544   1.450       .  S
C1540      C1541   1.411       .  A
C1540      C1556   1.451       .  S
C1541      C1542   1.410       .  A
C1542      C1545   1.451       .  S
C1543      C1546   1.412   1_565  A
C1543      C1550   1.411       .  A
C1544      N1561   1.157       .  T
C1545      N1563   1.157       .  T
C1546      C1547   1.409       .  A
C1546      C1551   1.451       .  S
C1547      C1548   1.412       .  A
C1547      C1553   1.451       .  S
C1548      C1549   1.412       .  A
C1549      C1550   1.409   1_545  A
C1549      C1552   1.451       .  S
C1550      C1554   1.450       .  S
C1551      N1558   1.157       .  T
C1552      N1559   1.157       .  T
C1553      N1557   1.157       .  T
C1554      N1560   1.157       .  T
C1555      N1564   1.157       .  T
C1556      N1562   1.157       .  T
C1565      C1566   1.411       .  A
C1565      C1570   1.410       .  A
C1565      C1583   1.451       .  S
C1566      C1567   1.412       .  A
C1566      C1571   1.496       .  S
C1567      C1568   1.412       .  A
C1567      C1572   1.450       .  S
C1568      C1569   1.413       .  A
C1568      C1584   1.450       .  S
C1569      C1570   1.412       .  A
C1570      C1573   1.450       .  S
C1571      C1574   1.411       .  A
C1571      C1578   1.410       .  A
C1572      N1589   1.157       .  T
C1573      N1591   1.157       .  T
C1574      C1575   1.411       .  A
C1574      C1579   1.450       .  S
C1575      C1576   1.414       .  A
C1575      C1581   1.451       .  S
C1576      C1577   1.415       .  A
C1577      C1578   1.410       .  A
C1577      C1580   1.451       .  S
C1578      C1582   1.451       .  S
C1579      N1586   1.157       .  T
C1580      N1587   1.157       .  T
C1581      N1585   1.157       .  T
C1582      N1588   1.157       .  T
C1583      N1592   1.157       .  T
C1584      N1590   1.157       .  T
C1593      C1594   1.411       .  A
C1593      C1598   1.410       .  A
C1593      C1611   1.451       .  S
C1594      C1595   1.411       .  A
C1594      C1599   1.496       .  S
C1595      C1596   1.412       .  A
C1595      C1600   1.450       .  S
C1596      C1597   1.413       .  A
C1596      C1612   1.450       .  S
C1597      C1598   1.412       .  A
C1598      C1601   1.451       .  S
C1599      C1602   1.412       .  A
C1599      C1606   1.411       .  A
C1600      N1617   1.157       .  T
C1601      N1619   1.157       .  T
C1602      C1603   1.411       .  A
C1602      C1607   1.450       .  S
C1603      C1604   1.411       .  A
C1603      C1609   1.450       .  S
C1604      C1605   1.412       .  A
C1605      C1606   1.411       .  A
C1605      C1608   1.451       .  S
C1606      C1610   1.450       .  S
C1607      N1614   1.157       .  T
C1608      N1615   1.157       .  T
C1609      N1613   1.157       .  T
C1610      N1616   1.157       .  T
C1611      N1620   1.157       .  T
C1612      N1618   1.157       .  T
C1621      C1622   1.411   1_545  A
C1621      C1626   1.411       .  A
C1621      C1639   1.451       .  S
C1622      C1623   1.411       .  A
C1622      C1627   1.498       .  S
C1623      C1624   1.412   1_565  A
C1623      C1628   1.450       .  S
C1624      C1625   1.413       .  A
C1624      C1640   1.450   1_554  S
C1625      C1626   1.414       .  A
C1626      C1629   1.450       .  S
C1627      C1630   1.412       .  A
C1627      C1634   1.412       .  A
C1628      N1645   1.157       .  T
C1629      N1647   1.157       .  T
C1630      C1631   1.410       .  A
C1630      C1635   1.450   1_565  S
C1631      C1632   1.410       .  A
C1631      C1637   1.450       .  S
C1632      C1633   1.411       .  A
C1633      C1634   1.412       .  A
C1633      C1636   1.451       .  S
C1634      C1638   1.450       .  S
C1635      N1642   1.157       .  T
C1636      N1643   1.157       .  T
C1637      N1641   1.157       .  T
C1638      N1644   1.157       .  T
C1639      N1648   1.157       .  T
C1640      N1646   1.157       .  T
C1649      C1650   1.414       .  A
C1649      C1654   1.415       .  A
C1649      C1667   1.451       .  S
C1650      C1651   1.412       .  A
C1650      C1655   1.508       .  S
C1651      C1652   1.412       .  A
C1651      C1656   1.452       .  S
C1652      C1653   1.420       .  A
C1652      C1668   1.451       .  S
C1653      C1654   1.418       .  A
C1654      C1657   1.450       .  S
C1655      C1658   1.413       .  A
C1655      C1662   1.413       .  A
C1656      N1673   1.157       .  T
C1657      N1675   1.157       .  T
C1658      C1659   1.412       .  A
C1658      C1663   1.452       .  S
C1659      C1660   1.419       .  A
C1659      C1665   1.451       .  S
C1660      C1661   1.420       .  A
C1661      C1662   1.415       .  A
C1661      C1664   1.450       .  S
C1662      C1666   1.451       .  S
C1663      N1670   1.157       .  T
C1664      N1671   1.158       .  T
C1665      N1669   1.158       .  T
C1666      N1672   1.157       .  T
C1667      N1676   1.157       .  T
C1668      N1674   1.157       .  T
C1677      C1678   1.412       .  A
C1677      C1682   1.412       .  A
C1677      C1695   1.452       .  S
C1678      C1679   1.411       .  A
C1678      C1683   1.506       .  S
C1679      C1680   1.413       .  A
C1679      C1684   1.451       .  S
C1680      C1681   1.421       .  A
C1680      C1696   1.451       .  S
C1681      C1682   1.421       .  A
C1682      C1685   1.451       .  S
C1683      C1686   1.412       .  A
C1683      C1690   1.411       .  A
C1684      N1701   1.157       .  T
C1685      N1703   1.157       .  T
C1686      C1687   1.414       .  A
C1686      C1691   1.451       .  S
C1687      C1688   1.420       .  A
C1687      C1693   1.451       .  S
C1688      C1689   1.420       .  A
C1689      C1690   1.412       .  A
C1689      C1692   1.451       .  S
C1690      C1694   1.452       .  S
C1691      N1698   1.157       .  T
C1692      N1699   1.158       .  T
C1693      N1697   1.158       .  T
C1694      N1700   1.157       .  T
C1695      N1704   1.157       .  T
C1696      N1702   1.157       .  T
C1705      C1706   1.410       .  A
C1705      C1710   1.412       .  A
C1705      C1723   1.450       .  S
C1706      C1707   1.411       .  A
C1706      C1711   1.502       .  S
C1707      C1708   1.414       .  A
C1707      C1712   1.450       .  S
C1708      C1709   1.416       .  A
C1708      C1724   1.450       .  S
C1709      C1710   1.418       .  A
C1710      C1713   1.451       .  S
C1711      C1714   1.412       .  A
C1711      C1718   1.412       .  A
C1712      N1729   1.157       .  T
C1713      N1731   1.157       .  T
C1714      C1715   1.412       .  A
C1714      C1719   1.450       .  S
C1715      C1716   1.412       .  A
C1715      C1721   1.450       .  S
C1716      C1717   1.413       .  A
C1717      C1718   1.414       .  A
C1717      C1720   1.450       .  S
C1718      C1722   1.450       .  S
C1719      N1726   1.157       .  T
C1720      N1727   1.157       .  T
C1721      N1725   1.157       .  T
C1722      N1728   1.157       .  T
C1723      N1732   1.157       .  T
C1724      N1730   1.157       .  T
C1733      C1734   1.412       .  A
C1733      C1738   1.409       .  A
C1733      C1751   1.452       .  S
C1734      C1735   1.412       .  A
C1734      C1739   1.498       .  S
C1735      C1736   1.409       .  A
C1735      C1740   1.452       .  S
C1736      C1737   1.417       .  A
C1736      C1752   1.452       .  S
C1737      C1738   1.417       .  A
C1738      C1741   1.451       .  S
C1739      C1742   1.412       .  A
C1739      C1746   1.412       .  A
C1740      N1757   1.157   1_556  T
C1741      N1759   1.157       .  T
C1742      C1743   1.408       .  A
C1742      C1747   1.452       .  S
C1743      C1744   1.417       .  A
C1743      C1749   1.451       .  S
C1744      C1745   1.417       .  A
C1745      C1746   1.409       .  A
C1745      C1748   1.451       .  S
C1746      C1750   1.452       .  S
C1747      N1754   1.157       .  T
C1748      N1755   1.157       .  T
C1749      N1753   1.157       .  T
C1750      N1756   1.157       .  T
C1751      N1760   1.157       .  T
C1752      N1758   1.157   1_556  T
C1761      C1762   1.412       .  A
C1761      C1766   1.414       .  A
C1761      C1779   1.450       .  S
C1762      C1763   1.411       .  A
C1762      C1767   1.501       .  S
C1763      C1764   1.412       .  A
C1763      C1768   1.450       .  S
C1764      C1765   1.413       .  A
C1764      C1780   1.450       .  S
C1765      C1766   1.414       .  A
C1766      C1769   1.450       .  S
C1767      C1770   1.412       .  A
C1767      C1774   1.412       .  A
C1768      N1785   1.157       .  T
C1769      N1787   1.157       .  T
C1770      C1771   1.413       .  A
C1770      C1775   1.450       .  S
C1771      C1772   1.413       .  A
C1771      C1777   1.450       .  S
C1772      C1773   1.413       .  A
C1773      C1774   1.412       .  A
C1773      C1776   1.451       .  S
C1774      C1778   1.450       .  S
C1775      N1782   1.157       .  T
C1776      N1783   1.157       .  T
C1777      N1781   1.157       .  T
C1778      N1784   1.157       .  T
C1779      N1788   1.157       .  T
C1780      N1786   1.157       .  T
C1789      C1790   1.412       .  A
C1789      C1794   1.409       .  A
C1789      C1807   1.451       .  S
C1790      C1791   1.412       .  A
C1790      C1795   1.497       .  S
C1791      C1792   1.409       .  A
C1791      C1796   1.451       .  S
C1792      C1793   1.415       .  A
C1792      C1808   1.451       .  S
C1793      C1794   1.415       .  A
C1794      C1797   1.451       .  S
C1795      C1798   1.409       .  A
C1795      C1802   1.408       .  A
C1796      N1813   1.157       .  T
C1797      N1815   1.157       .  T
C1798      C1799   1.411       .  A
C1798      C1803   1.452       .  S
C1799      C1800   1.423       .  A
C1799      C1805   1.450       .  S
C1800      C1801   1.422       .  A
C1801      C1802   1.409       .  A
C1801      C1804   1.451       .  S
C1802      C1806   1.452       .  S
C1803      N1810   1.157       .  T
C1804      N1811   1.158       .  T
C1805      N1809   1.158       .  T
C1806      N1812   1.157       .  T
C1807      N1816   1.157       .  T
C1808      N1814   1.157       .  T
C1817      C1818   1.411       .  A
C1817      C1822   1.411       .  A
C1817      C1835   1.450       .  S
C1818      C1819   1.410       .  A
C1818      C1823   1.497       .  S
C1819      C1820   1.411       .  A
C1819      C1824   1.450       .  S
C1820      C1821   1.416       .  A
C1820      C1836   1.451       .  S
C1821      C1822   1.414       .  A
C1822      C1825   1.451       .  S
C1823      C1826   1.410       .  A
C1823      C1830   1.413       .  A
C1824      N1841   1.157       .  T
C1825      N1843   1.157       .  T
C1826      C1827   1.409       .  A
C1826      C1831   1.450       .  S
C1827      C1828   1.412       .  A
C1827      C1833   1.451       .  S
C1828      C1829   1.411       .  A
C1829      C1830   1.412       .  A
C1829      C1832   1.450       .  S
C1830      C1834   1.450       .  S
C1831      N1838   1.157       .  T
C1832      N1839   1.157       .  T
C1833      N1837   1.157       .  T
C1834      N1840   1.157       .  T
C1835      N1844   1.157       .  T
C1836      N1842   1.157       .  T
C1845      C1846   1.412   1_556  A
C1845      C1850   1.413       .  A
C1845      C1863   1.450       .  S
C1846      C1847   1.411       .  A
C1846      C1851   1.499       .  S
C1847      C1848   1.411   1_554  A
C1847      C1852   1.450       .  S
C1848      C1849   1.413       .  A
C1848      C1864   1.451   1_556  S
C1849      C1850   1.413       .  A
C1850      C1853   1.450       .  S
C1851      C1854   1.413       .  A
C1851      C1858   1.412       .  A
C1852      N1869   1.157       .  T
C1853      N1871   1.157       .  T
C1854      C1855   1.413       .  A
C1854      C1859   1.450       .  S
C1855      C1856   1.412       .  A
C1855      C1861   1.450       .  S
C1856      C1857   1.411       .  A
C1857      C1858   1.411       .  A
C1857      C1860   1.450       .  S
C1858      C1862   1.450       .  S
C1859      N1866   1.157       .  T
C1860      N1867   1.157       .  T
C1861      N1865   1.157       .  T
C1862      N1868   1.157   1_554  T
C1863      N1872   1.157       .  T
C1864      N1870   1.157       .  T
