geometry optimzed in LAMMPS
_audit_creation_date              2020-11-30 
_audit_creation_method            'lammps2cif' 
_symmetry_space_group_name_H-M    'P1' 
_symmetry_Int_Tables_number       1 
_symmetry_cell_setting            triclinic 
loop_ 
_symmetry_equiv_pos_as_xyz 
  x,y,z 
_cell_length_a                    37.10811689 
_cell_length_b                    37.05847352849458 
_cell_length_c                    107.08161368558608 
_cell_angle_alpha                 89.97113555733648 
_cell_angle_beta                  90.03201427977018 
_cell_angle_gamma                 90.01623930720943 
loop_ 
_atom_site_label 
_atom_site_type_symbol 
_atom_site_fract_x 
_atom_site_fract_y 
_atom_site_fract_z 
_atom_site_charge 
N1          N  0.76715126  0.74980748  0.76643610    -0.36500
N2          N  0.75505313  0.80387478  0.74709441    -0.57100
N3          N  0.73800180  0.74617208  0.72936801    -0.36500
N4          N  0.75542988  0.69208128  0.74833903    -0.57100
C5          C  0.77766767  0.77989128  0.77263270     0.27100
C6          C  0.77772340  0.72099655  0.77330923     0.27100
C7          C  0.73749388  0.77492063  0.72156224     0.27100
C8          C  0.73771293  0.71604207  0.72222295     0.27100
C9          C  0.75868037  0.82631062  0.75698402     0.35700
C10         C  0.74331518  0.82430834  0.73744858     0.35700
C11         C  0.75882337  0.67163486  0.75874038     0.35700
C12         C  0.74391475  0.66979767  0.73917013     0.35700
C13         C  0.79477766  0.77004951  0.78363635    -0.21800
C14         C  0.79487080  0.73296942  0.78405242    -0.21800
C15         C  0.73597141  0.76285040  0.70930534    -0.21800
C16         C  0.73622013  0.72577536  0.70972122    -0.21800
C17         C  0.74993291  0.86126519  0.75353495    -0.22800
C18         C  0.74034323  0.86003507  0.74116803    -0.22800
C19         C  0.74984949  0.63610762  0.75610741    -0.22800
C20         C  0.74058965  0.63491986  0.74371433    -0.22800
C21         C  0.77060571  0.81602796  0.76902628    -0.18200
C22         C  0.77085102  0.68420801  0.77051672    -0.18200
C23         C  0.73754712  0.67997062  0.72662174    -0.18200
C24         C  0.73677800  0.81173308  0.72516405    -0.18200
H25         H  0.80591777  0.78775914  0.79068798     0.14700
H26         H  0.80615014  0.71668244  0.79148162     0.14700
H27         H  0.73469624  0.77901037  0.70089599     0.14700
H28         H  0.73527838  0.70803118  0.70169975     0.14700
H29         H  0.75048122  0.88521567  0.75931147     0.13000
H30         H  0.73216066  0.88292461  0.73556499     0.13000
H31         H  0.74991071  0.61333892  0.76243872     0.13000
H32         H  0.73217288  0.61109247  0.73864731     0.13000
H33         H  0.75013180  0.74904031  0.75881048     0.26300
H34         H  0.73513787  0.74705459  0.73894833     0.26300
N35         N  0.22593345  0.75207521  0.76889458    -0.36500
N36         N  0.24507629  0.69512651  0.75137831    -0.57100
N37         N  0.26006350  0.74971110  0.73245808    -0.36500
N38         N  0.24484338  0.80638769  0.75031152    -0.57100
C39         C  0.22565732  0.72329735  0.77667512     0.27100
C40         C  0.22582890  0.78212390  0.77607210     0.27100
C41         C  0.27303137  0.71989471  0.72674233     0.27100
C42         C  0.27364094  0.77866107  0.72633739     0.27100
C43         C  0.23199276  0.67438844  0.76073345     0.35700
C44         C  0.24967799  0.67312820  0.74143313     0.35700
C45         C  0.23095901  0.82818254  0.75916670     0.35700
C46         C  0.24919562  0.82699261  0.74002989     0.35700
C47         C  0.22426922  0.73532872  0.78894900    -0.21800
C48         C  0.22458939  0.77237198  0.78856268    -0.21800
C49         C  0.29479672  0.73001701  0.71680869    -0.21800
C50         C  0.29521850  0.76708778  0.71656662    -0.21800
C51         C  0.22896507  0.63889557  0.75677600    -0.22800
C52         C  0.23989463  0.63815381  0.74453033    -0.22800
C53         C  0.22657491  0.86282663  0.75451647    -0.22800
C54         C  0.23796618  0.86202992  0.74234829    -0.22800
C55         C  0.22495564  0.68652351  0.77302537    -0.18200
C56         C  0.22527399  0.81813867  0.77169722    -0.18200
C57         C  0.26558725  0.81522266  0.72888701    -0.18200
C58         C  0.26436996  0.68377072  0.72980678    -0.18200
H59         H  0.22293127  0.71923901  0.79736686     0.14700
H60         H  0.22362761  0.79008917  0.79658913     0.14700
H61         H  0.30888283  0.71248722  0.71037068     0.14700
H62         H  0.30961258  0.78364324  0.70989721     0.14700
H63         H  0.22003999  0.61583753  0.76215237     0.13000
H64         H  0.24092438  0.61445025  0.73864352     0.13000
H65         H  0.21669731  0.88633772  0.75943464     0.13000
H66         H  0.23852966  0.88480237  0.73601929     0.13000
H67         H  0.22282013  0.75128172  0.75928095     0.26300
H68         H  0.23982853  0.75015894  0.73914199     0.26300
N69         N  0.99510961  0.49188834  0.51830692    -0.36500
N70         N  0.05117024  0.50742851  0.50038414    -0.57100
N71         N  0.99618853  0.52945087  0.48231732    -0.36500
N72         N  0.94009882  0.51006466  0.49984816    -0.57100
C73         C  0.02389941  0.47770526  0.52433207     0.27100
C74         C  0.96521743  0.47946692  0.52409180     0.27100
C75         C  0.02584937  0.52946103  0.47500683     0.27100
C76         C  0.96719376  0.52975340  0.47464063     0.27100
C77         C  0.07224218  0.50133802  0.51046600     0.35700
C78         C  0.07270524  0.52199162  0.49156248     0.35700
C79         C  0.91873835  0.50607562  0.50994718     0.35700
C80         C  0.91933500  0.52475098  0.49081390     0.35700
C81         C  0.01217475  0.45625460  0.53412832    -0.21800
C82         C  0.97515490  0.45724730  0.53395309    -0.21800
C83         C  0.01562193  0.53069269  0.46254930    -0.21800
C84         C  0.97865602  0.53087872  0.46231767    -0.21800
C85         C  0.10742090  0.51161325  0.50798316    -0.22800
C86         C  0.10773722  0.52462222  0.49598530    -0.22800
C87         C  0.88421082  0.51824246  0.50730401    -0.22800
C88         C  0.88449049  0.52966644  0.49513130    -0.22800
C89         C  0.06046856  0.48524390  0.52169799    -0.18200
C90         C  0.92929044  0.48938850  0.52123096    -0.18200
C91         C  0.93073213  0.53105988  0.47844566    -0.18200
C92         C  0.06192100  0.53010192  0.47923457    -0.18200
H93         H  0.02859564  0.44157130  0.54076500     0.14700
H94         H  0.95756886  0.44340356  0.54044003     0.14700
H95         H  0.03294787  0.53165149  0.45442996     0.14700
H96         H  0.96221735  0.53216487  0.45398220     0.14700
H97         H  0.13050733  0.50967856  0.51412818     0.13000
H98         H  0.13117570  0.53449762  0.49103656     0.13000
H99         H  0.86101488  0.51839408  0.51342191     0.13000
H100        H  0.86155185  0.54012281  0.49004784     0.13000
H101        H  0.99577388  0.51228479  0.51167721     0.26300
H102        H  0.99593614  0.53288699  0.49192777     0.26300
N103        N  0.72806947  0.43279027  0.60836536    -0.27200
N104        N  0.70651187  0.41383484  0.60108119    -0.35000
C105        C  0.72008026  0.41391711  0.58942060     0.01200
C106        C  0.75167920  0.43409656  0.58942179     0.07200
C107        C  0.75571469  0.44546584  0.60165553    -0.05900
H108        H  0.70759063  0.40052715  0.58156310     0.07800
H109        H  0.77697907  0.46189706  0.60555382     0.09000
Cu110      Cu  0.66007302  0.38914415  0.60773620     0.44200
Cu111      Cu  0.71902396  0.44310171  0.62691469     0.42000
Cu112      Cu  0.63924805  0.40923700  0.64070137     0.43900
N113        N  0.61859405  0.36529560  0.61785768    -0.34600
N114        N  0.61199355  0.37183939  0.62979576    -0.28800
C115        C  0.58507843  0.35029732  0.63366237    -0.04900
C116        C  0.57396525  0.32945388  0.62369315     0.07300
C117        C  0.59565109  0.33969126  0.61380286     0.01100
H118        H  0.57444856  0.34982131  0.64306741     0.08700
H119        H  0.59544404  0.32869186  0.60444488     0.07800
N120        N  0.67168430  0.44717989  0.64943685    -0.36000
N121        N  0.70215424  0.45827048  0.64437479    -0.28200
C122        C  0.71764121  0.48278634  0.65184344    -0.03400
C123        C  0.69570999  0.48775745  0.66211059     0.05200
C124        C  0.66663150  0.46484943  0.66028705     0.03300
H125        H  0.74232379  0.49703176  0.64968574     0.08400
H126        H  0.64354673  0.46139646  0.66633644     0.07200
N127        N  0.29935241  0.47070813  0.64394293    -0.27200
N128        N  0.32646921  0.45529700  0.64987166    -0.35000
C129        C  0.33201761  0.47297417  0.66070283     0.01200
C130        C  0.30711414  0.50098080  0.66159443     0.07200
C131        C  0.28691457  0.49840417  0.65073402    -0.05900
H132        H  0.35292357  0.46608060  0.66732070     0.07800
H133        H  0.26489022  0.51546145  0.64778346     0.09000
Cu134      Cu  0.35483908  0.41209180  0.64222972     0.44200
Cu135      Cu  0.28105960  0.45519174  0.62659790     0.42000
Cu136      Cu  0.32907845  0.38824704  0.60968004     0.43900
N137        N  0.37972042  0.37250482  0.63140771    -0.34600
N138        N  0.37124568  0.36487984  0.61967644    -0.28800
C139        C  0.39354307  0.33897183  0.61545875    -0.04900
C140        C  0.41685138  0.32957128  0.62498633     0.07300
C141        C  0.40730058  0.35124459  0.63496298     0.01100
H142        H  0.39240353  0.32737524  0.60619646     0.08700
H143        H  0.41965930  0.35173798  0.64411630     0.07800
N144        N  0.28475679  0.41530136  0.60227112    -0.36000
N145        N  0.26727060  0.44004233  0.60872152    -0.28200
C146        C  0.24028953  0.45336652  0.60177494    -0.03400
C147        C  0.24046873  0.43623897  0.59026943     0.05200
C148        C  0.26913538  0.41209727  0.59095661     0.03300
H149        H  0.22181846  0.47388199  0.60500673     0.08400
H150        H  0.27826702  0.39380874  0.58375850     0.07200
N151        N  0.99825527  0.98699824  0.48073098    -0.36500
N152        N  0.05144206  0.99617357  0.50078840    -0.57100
N153        N  0.99407903  0.01840156  0.51767190    -0.36500
N154        N  0.94063116  0.00539389  0.49797807    -0.57100
C155        C  0.02796444  0.97336986  0.47513285     0.27100
C156        C  0.96937467  0.97730851  0.47374032     0.27100
C157        C  0.02203728  0.01695105  0.52582167     0.27100
C158        C  0.96336313  0.02103804  0.52443448     0.27100
C159        C  0.07419561  0.99063375  0.49111886     0.35700
C160        C  0.07199279  0.00688989  0.51055109     0.35700
C161        C  0.92057033  0.00137521  0.48751625     0.35700
C162        C  0.91823938  0.01793940  0.50693472     0.35700
C163        C  0.01792565  0.95535072  0.46432418    -0.21800
C164        C  0.98100951  0.95778433  0.46345544    -0.21800
C165        C  0.00901234  0.01972738  0.53790390    -0.21800
C166        C  0.97214992  0.02238932  0.53704335    -0.21800
C167        C  0.10938160  0.99736236  0.49481623    -0.22800
C168        C  0.10799968  0.00749398  0.50712101    -0.22800
C169        C  0.88519529  0.01122597  0.48985333    -0.22800
C170        C  0.88367289  0.02154777  0.50213613    -0.22800
C171        C  0.06407880  0.97818820  0.47912239    -0.18200
C172        C  0.93290678  0.98643314  0.47613553    -0.18200
C173        C  0.92768673  0.02346623  0.51962150    -0.18200
C174        C  0.05910822  0.01453775  0.52270287    -0.18200
H175        H  0.03540876  0.94185587  0.45772310     0.14700
H176        H  0.96463458  0.94651767  0.45605292     0.14700
H177        H  0.02444658  0.01998306  0.54648233     0.14700
H178        H  0.95402777  0.02526579  0.54488793     0.14700
H179        H  0.13361702  0.99499881  0.48925849     0.13000
H180        H  0.13094771  0.01444321  0.51288157     0.13000
H181        H  0.86261371  0.01032698  0.48345724     0.13000
H182        H  0.85958578  0.03002879  0.50700295     0.13000
H183        H  0.99820659  0.00501177  0.48811981     0.26300
H184        H  0.99603660  0.02074038  0.50806917     0.26300
N185        N  0.30622014  0.02690036  0.64336099    -0.27200
N186        N  0.33000547  0.04561947  0.64983780    -0.35000
C187        C  0.33375636  0.03027450  0.66119323     0.01200
C188        C  0.31102293  0.00045721  0.66183642     0.07200
C189        C  0.29416621  0.99939263  0.65029261    -0.05900
H190        H  0.35175741  0.04007235  0.66837787     0.07800
H191        H  0.27490494  0.97979615  0.64693566     0.09000
Cu192      Cu  0.35611345  0.09003007  0.64217905     0.44200
Cu193      Cu  0.29082240  0.03814142  0.62529939     0.42000
Cu194      Cu  0.32995828  0.11225725  0.60938383     0.43900
N195        N  0.37969700  0.13005120  0.63127924    -0.34600
N196        N  0.37118681  0.13741260  0.61952416    -0.28800
C197        C  0.39326851  0.16360525  0.61531981    -0.04900
C198        C  0.41637457  0.17337212  0.62488877     0.07300
C199        C  0.40695634  0.15165863  0.63485422     0.01100
H200        H  0.39232719  0.17493824  0.60601205     0.08700
H201        H  0.41935005  0.15119939  0.64400241     0.07800
N202        N  0.28925517  0.08050451  0.60146895    -0.36000
N203        N  0.27584057  0.05238394  0.60744300    -0.28200
C204        C  0.25082365  0.03631345  0.60029021    -0.03400
C205        C  0.24785669  0.05526502  0.58919920     0.05200
C206        C  0.27262613  0.08331696  0.59029547     0.03300
H207        H  0.23519825  0.01309239  0.60315034     0.08400
H208        H  0.27823629  0.10411124  0.58347588     0.07200
N209        N  0.71472333  0.05520721  0.60505250    -0.27200
N210        N  0.69919877  0.08274097  0.59939541    -0.35000
C211        C  0.71475076  0.08746699  0.58815262     0.01200
C212        C  0.74130883  0.06139120  0.58666419     0.07200
C213        C  0.74035891  0.04145449  0.59761487    -0.05900
H214        H  0.70719969  0.10831185  0.58158328     0.07800
H215        H  0.75759159  0.01913147  0.60019332     0.09000
Cu216      Cu  0.65792411  0.11171489  0.60777710     0.44200
Cu217      Cu  0.70115785  0.03878255  0.62281976     0.42000
Cu218      Cu  0.63097395  0.08415192  0.63990909     0.43900
N219        N  0.61722899  0.13568620  0.61818374    -0.34600
N220        N  0.60813954  0.12662131  0.62973668    -0.28800
C221        C  0.58146185  0.14858727  0.63358265    -0.04900
C222        C  0.57313374  0.17214179  0.62397172     0.07300
C223        C  0.59622264  0.16315398  0.61435895     0.01100
H224        H  0.56868578  0.14714960  0.64264923     0.08700
H225        H  0.59794337  0.17587637  0.60528158     0.07800
N226        N  0.65973002  0.04024935  0.64707493    -0.36000
N227        N  0.68582558  0.02467856  0.64064688    -0.28200
C228        C  0.70064817  0.99832981  0.64750027    -0.03400
C229        C  0.68313744  0.99674953  0.65886468     0.05200
C230        C  0.65704330  0.02363062  0.65827099     0.03300
H231        H  0.72252112  0.98134638  0.64434110     0.08400
H232        H  0.63815224  0.03107379  0.66551657     0.07200
N233        N  0.49719587  0.51518831  0.01826719    -0.36500
N234        N  0.55374871  0.49916168  0.00032453    -0.57100
N235        N  0.49953517  0.47592661  0.98236301    -0.36500
N236        N  0.44288140  0.49598081  0.00002815    -0.57100
C237        C  0.52573131  0.53007854  0.02418308     0.27100
C238        C  0.46719117  0.52624220  0.02429852     0.27100
C239        C  0.52930726  0.47606240  0.97504920     0.27100
C240        C  0.47047551  0.47622864  0.97469561     0.27100
C241        C  0.57450385  0.50642394  0.01038578     0.35700
C242        C  0.57578657  0.48465764  0.99163333     0.35700
C243        C  0.42136166  0.49910370  0.01014736     0.35700
C244        C  0.42239398  0.48153217  0.99088475     0.35700
C245        C  0.51370713  0.55077833  0.03413966    -0.21800
C246        C  0.47672563  0.54826444  0.03423366    -0.21800
C247        C  0.51901078  0.47522035  0.96259792    -0.21800
C248        C  0.48194315  0.47547129  0.96237584    -0.21800
C249        C  0.60994643  0.49673832  0.00804172    -0.22800
C250        C  0.61077385  0.48304463  0.99614730    -0.22800
C251        C  0.38698714  0.48680915  0.00739768    -0.22800
C252        C  0.38757107  0.47593022  0.99515150    -0.22800
C253        C  0.56235973  0.52326013  0.02144502    -0.18200
C254        C  0.43167748  0.51498948  0.02158332    -0.18200
C255        C  0.43388387  0.47587001  0.97847542    -0.18200
C256        C  0.56552415  0.47624272  0.97927046    -0.18200
H257        H  0.52993200  0.56562402  0.04078845     0.14700
H258        H  0.45891584  0.56087161  0.04094017     0.14700
H259        H  0.53637263  0.47472888  0.95448267     0.14700
H260        H  0.46533766  0.47508775  0.95406441     0.14700
H261        H  0.63292397  0.49966513  0.01419014     0.13000
H262        H  0.63454112  0.47356106  0.99130264     0.13000
H263        H  0.36374317  0.48636306  0.01349796     0.13000
H264        H  0.36490561  0.46529737  0.98995735     0.13000
H265        H  0.49831430  0.49499070  0.01158546     0.26300
H266        H  0.49911192  0.47264711  0.99198428     0.26300
N267        N  0.80136189  0.47176447  0.85708018    -0.27200
N268        N  0.82475766  0.45338475  0.85031283    -0.35000
C269        C  0.82764165  0.46929586  0.83901057     0.01200
C270        C  0.80477538  0.49907381  0.83868323     0.07200
C271        C  0.78869731  0.49952883  0.85036059    -0.05900
H272        H  0.84522562  0.45994626  0.83164160     0.07800
H273        H  0.76972900  0.51907498  0.85394311     0.09000
Cu274      Cu  0.85205057  0.40855057  0.85744122     0.44200
Cu275      Cu  0.78801472  0.46017130  0.87537291     0.42000
Cu276      Cu  0.83001349  0.38539358  0.89025299     0.43900
N277        N  0.87729694  0.36801935  0.86784884    -0.34600
N278        N  0.86982902  0.36033362  0.87965489    -0.28800
C279        C  0.89260608  0.33454585  0.88368180    -0.04900
C280        C  0.91531210  0.32534036  0.87396580     0.07300
C281        C  0.90476069  0.34693438  0.86406210     0.01100
H282        H  0.89267006  0.32340781  0.89302354     0.08700
H283        H  0.91672055  0.34785591  0.85485432     0.07800
N284        N  0.79143949  0.41712654  0.89909153    -0.36000
N285        N  0.77688122  0.44546944  0.89357794    -0.28200
C286        C  0.75333076  0.46108090  0.90140793    -0.03400
C287        C  0.75261135  0.44146645  0.91241555     0.05200
C288        C  0.77712432  0.41365553  0.91059698     0.03300
H289        H  0.73695842  0.48426083  0.89905530     0.08400
H290        H  0.78396803  0.39242232  0.91711418     0.07200
N291        N  0.17201059  0.49024574  0.86218538    -0.27200
N292        N  0.14786328  0.47246633  0.85554177    -0.35000
C293        C  0.14496147  0.48818837  0.84422906     0.01200
C294        C  0.16893480  0.51692538  0.84374219     0.07200
C295        C  0.18536844  0.51740165  0.85534131    -0.05900
H296        H  0.12812004  0.47827653  0.83672826     0.07800
H297        H  0.20625324  0.53555963  0.85853065     0.09000
Cu298      Cu  0.12385947  0.42557102  0.86213728     0.44200
Cu299      Cu  0.18882358  0.47520670  0.87976314     0.42000
Cu300      Cu  0.15493931  0.39375317  0.89323037     0.43900
N301        N  0.10514186  0.37951042  0.87110722    -0.34600
N302        N  0.11513329  0.36876599  0.88239617    -0.28800
C303        C  0.09569686  0.33941612  0.88552830    -0.04900
C304        C  0.07289251  0.33108623  0.87570064     0.07300
C305        C  0.07973133  0.35691445  0.86671203     0.01100
H306        H  0.09801719  0.32517172  0.89431472     0.08700
H307        H  0.06640212  0.35979939  0.85777840     0.07800
N308        N  0.19571973  0.42447882  0.90152933    -0.36000
N309        N  0.20709861  0.45500773  0.89652834    -0.28200
C310        C  0.23325318  0.46910892  0.90367152    -0.03400
C311        C  0.23909319  0.44634639  0.91370447     0.05200
C312        C  0.21484142  0.41814600  0.91203074     0.03300
H313        H  0.24770543  0.49366107  0.90147544     0.08400
H314        H  0.21133082  0.39483630  0.91799188     0.07200
N315        N  0.73484184  0.25075587  0.26657419    -0.36500
N316        N  0.75130500  0.19796566  0.24777379    -0.57100
N317        N  0.76356980  0.25618433  0.22969535    -0.36500
N318        N  0.74347212  0.30888044  0.24826967    -0.57100
C319        C  0.72437815  0.22025846  0.27254616     0.27100
C320        C  0.72028221  0.27892286  0.27279097     0.27100
C321        C  0.76337753  0.22706306  0.22210081     0.27100
C322        C  0.75938314  0.28576159  0.22240298     0.27100
C323        C  0.75073546  0.17588324  0.25782854     0.35700
C324        C  0.76631951  0.17892260  0.23838611     0.35700
C325        C  0.74036707  0.32878471  0.25876513     0.35700
C326        C  0.75539869  0.33150393  0.23927240     0.35700
C327        C  0.70304398  0.22920779  0.28270537    -0.21800
C328        C  0.70048003  0.26622846  0.28286637    -0.21800
C329        C  0.75947616  0.23825941  0.20980684    -0.21800
C330        C  0.75699145  0.27533073  0.20999847    -0.21800
C331        C  0.76528835  0.14260706  0.25481156    -0.22800
C332        C  0.77511361  0.14449571  0.24247397    -0.22800
C333        C  0.75017201  0.36426642  0.25641204    -0.22800
C334        C  0.75950960  0.36602611  0.24402693    -0.22800
C335        C  0.73516115  0.18473839  0.26945102    -0.18200
C336        C  0.72677139  0.31582740  0.27023544    -0.18200
C337        C  0.75983452  0.32192685  0.22662071    -0.18200
C338        C  0.76906070  0.19095071  0.22590803    -0.18200
H339        H  0.69086010  0.21099016  0.28938506     0.14700
H340        H  0.68601607  0.28205446  0.28971980     0.14700
H341        H  0.75893660  0.22150468  0.20153291     0.14700
H342        H  0.75413465  0.29262346  0.20191020     0.14700
H343        H  0.76811017  0.11928125  0.26081856     0.13000
H344        H  0.78682535  0.12278280  0.23707583     0.13000
H345        H  0.75016134  0.38667587  0.26288809     0.13000
H346        H  0.76798752  0.39002915  0.23906973     0.13000
H347        H  0.75435143  0.25263311  0.25965724     0.26300
H348        H  0.77032892  0.25604036  0.23910709     0.26300
N349        N  0.50135894  0.02519735  0.98199392    -0.36500
N350        N  0.55598135  0.00759663  0.00073607    -0.57100
N351        N  0.49920898  0.98925752  0.01825004    -0.36500
N352        N  0.44458751  0.01046201  0.99981749    -0.57100
C353        C  0.53132365  0.03824209  0.97638757     0.27100
C354        C  0.47259037  0.03886157  0.97580770     0.27100
C355        C  0.52824375  0.98727005  0.02592038     0.27100
C356        C  0.46935836  0.98978500  0.02552107     0.27100
C357        C  0.57764299  0.01229490  0.99071946     0.35700
C358        C  0.57655427  0.99253997  0.00977708     0.35700
C359        C  0.42404487  0.01462620  0.98947777     0.35700
C360        C  0.42284545  0.99664782  0.00873997     0.35700
C361        C  0.52151079  0.06033425  0.96649839    -0.21800
C362        C  0.48447322  0.06080178  0.96615019    -0.21800
C363        C  0.51652761  0.98547596  0.03820853    -0.21800
C364        C  0.47952958  0.98721241  0.03795942    -0.21800
C365        C  0.61219359  0.00048958  0.99343357    -0.22800
C366        C  0.61159680  0.98828173  0.00551633    -0.22800
C367        C  0.38907097  0.00341247  0.99185687    -0.22800
C368        C  0.38821093  0.99244431  0.00409184    -0.22800
C369        C  0.56726518  0.02879875  0.97936884    -0.18200
C370        C  0.43597278  0.03039026  0.97816983    -0.18200
C371        C  0.43312670  0.99020252  0.02126225    -0.18200
C372        C  0.56488855  0.98527475  0.02211722    -0.18200
H373        H  0.53923173  0.07441109  0.96011515     0.14700
H374        H  0.46816114  0.07541328  0.95946440     0.14700
H375        H  0.53276420  0.98274593  0.04654566     0.14700
H376        H  0.46213986  0.98603234  0.04605772     0.14700
H377        H  0.63559859  0.00108143  0.98741235     0.13000
H378        H  0.63461022  0.97794715  0.01057768     0.13000
H379        H  0.36636264  0.00348047  0.98551512     0.13000
H380        H  0.36467619  0.98262106  0.00899184     0.13000
H381        H  0.50068273  0.00466778  0.98858248     0.26300
H382        H  0.49950811  0.98670821  0.00861591     0.26300
N383        N  0.23479368  0.07433642  0.88924009    -0.27200
N384        N  0.21349576  0.09439837  0.89624585    -0.35000
C385        C  0.22758502  0.09651212  0.90781662     0.01200
C386        C  0.25934461  0.07661062  0.90812825     0.07200
C387        C  0.26287609  0.06307948  0.89610379    -0.05900
H388        H  0.21525383  0.11113878  0.91542932     0.07800
H389        H  0.28401797  0.04596409  0.89250252     0.09000
Cu390      Cu  0.16626283  0.11716375  0.88945768     0.44200
Cu391      Cu  0.22385856  0.06079290  0.87090691     0.42000
Cu392      Cu  0.14121166  0.09226019  0.85738098     0.43900
N393        N  0.12326179  0.13925805  0.87967210    -0.34600
N394        N  0.11506934  0.13123478  0.86796304    -0.28800
C395        C  0.08746351  0.15217104  0.86425040    -0.04900
C396        C  0.07756740  0.17402265  0.87412825     0.07300
C397        C  0.10068532  0.16507655  0.88376147     0.01100
H398        H  0.07537782  0.15137886  0.85505611     0.08700
H399        H  0.10163094  0.17704071  0.89297007     0.07800
N400        N  0.17352935  0.05349453  0.84902512    -0.36000
N401        N  0.20459426  0.04315873  0.85386920    -0.28200
C402        C  0.21931361  0.01778125  0.84653884    -0.03400
C403        C  0.19632090  0.01149183  0.83658926     0.05200
C404        C  0.16745716  0.03463303  0.83848676     0.03300
H405        H  0.24428254  0.00395982  0.84860975     0.08400
H406        H  0.14375895  0.03753187  0.83268638     0.07200
N407        N  0.78110864  0.05110948  0.89341341    -0.27200
N408        N  0.79809276  0.07753539  0.89920095    -0.35000
C409        C  0.78258285  0.08283005  0.91043173     0.01200
C410        C  0.75432704  0.05843134  0.91177724     0.07200
C411        C  0.75444372  0.03884444  0.90072274    -0.05900
H412        H  0.79104587  0.10328524  0.91700515     0.07800
H413        H  0.73621561  0.01755593  0.89796212     0.09000
Cu414      Cu  0.84031501  0.10533756  0.89084682     0.44200
Cu415      Cu  0.79380001  0.03362160  0.87561139     0.42000
Cu416      Cu  0.85939179  0.08339395  0.85777979     0.43900
N417        N  0.87885398  0.13093051  0.87988744    -0.34600
N418        N  0.88496678  0.12426116  0.86792027    -0.28800
C419        C  0.91060026  0.14714478  0.86378390    -0.04900
C420        C  0.92123651  0.16887385  0.87364023     0.07300
C421        C  0.90066012  0.15774484  0.88367532     0.01100
H422        H  0.92099599  0.14762814  0.85434780     0.08700
H423        H  0.90109759  0.16870897  0.89303783     0.07800
N424        N  0.83193515  0.03844019  0.85080999    -0.36000
N425        N  0.80808742  0.02037606  0.85750875    -0.28200
C426        C  0.79472989  0.99314552  0.85064579    -0.03400
C427        C  0.81083899  0.99380875  0.83897195     0.05200
C428        C  0.83446213  0.02291768  0.83945214     0.03300
H429        H  0.77474555  0.97422244  0.85398885     0.08400
H430        H  0.85178567  0.03251623  0.83204168     0.07200
N431        N  0.23228151  0.25255368  0.23243815    -0.36500
N432        N  0.24248693  0.19632175  0.25093423    -0.57100
N433        N  0.25440372  0.25154877  0.26997207    -0.36500
N434        N  0.24698286  0.30772904  0.25126895    -0.57100
C435        C  0.23263494  0.22335208  0.22482943     0.27100
C436        C  0.23391074  0.28227760  0.22511504     0.27100
C437        C  0.26443101  0.22163740  0.27632244     0.27100
C438        C  0.26701952  0.28036450  0.27640007     0.27100
C439        C  0.23272571  0.17515192  0.24121491     0.35700
C440        C  0.24391457  0.17478313  0.26111044     0.35700
C441        C  0.23597153  0.32934388  0.24186460     0.35700
C442        C  0.24895880  0.32873179  0.26155289     0.35700
C443        C  0.23380809  0.23483127  0.21249342    -0.21800
C444        C  0.23462559  0.27187600  0.21267650    -0.21800
C445        C  0.28320944  0.23160534  0.28698974    -0.21800
C446        C  0.28488868  0.26865727  0.28702365    -0.21800
C447        C  0.22850301  0.13981540  0.24523102    -0.22800
C448        C  0.23537647  0.13963114  0.25782961    -0.22800
C449        C  0.23154871  0.36438813  0.24617442    -0.22800
C450        C  0.23966931  0.36395202  0.25866116    -0.22800
C451        C  0.22989733  0.18673520  0.22863522    -0.18200
C452        C  0.23215505  0.31852151  0.22927961    -0.18200
C453        C  0.26094530  0.31697912  0.27336370    -0.18200
C454        C  0.25574500  0.18565091  0.27309150    -0.18200
H455        H  0.23338823  0.21840231  0.20414873     0.14700
H456        H  0.23497667  0.28909556  0.20451530     0.14700
H457        H  0.29444379  0.21402681  0.29406409     0.14700
H458        H  0.29757836  0.28512263  0.29412267     0.14700
H459        H  0.22175104  0.11641435  0.23966428     0.13000
H460        H  0.23500915  0.11610617  0.26382312     0.13000
H461        H  0.22373944  0.38799110  0.24087478     0.13000
H462        H  0.23919875  0.38701177  0.26485971     0.13000
H463        H  0.22719771  0.25246447  0.24193054     0.26300
H464        H  0.23643936  0.25232643  0.26255749     0.26300
N465        N  0.22036405  0.94911023  0.10625855    -0.27200
N466        N  0.20550705  0.92200890  0.10013903    -0.35000
C467        C  0.22105326  0.91957228  0.08879006     0.01200
C468        C  0.24667398  0.94679062  0.08776916     0.07200
C469        C  0.24531478  0.96486634  0.09904840    -0.05900
H470        H  0.21419837  0.89954836  0.08183624     0.07800
H471        H  0.26199716  0.98721488  0.10201428     0.09000
Cu472      Cu  0.16516574  0.89055813  0.10812333     0.44200
Cu473      Cu  0.20809445  0.96276771  0.12435887     0.42000
Cu474      Cu  0.14318614  0.91252114  0.14136727     0.43900
N475        N  0.12591333  0.86488503  0.11881535    -0.34600
N476        N  0.11881808  0.87186646  0.13070728    -0.28800
C477        C  0.09231200  0.84967108  0.13456588    -0.04900
C478        C  0.08198323  0.82810593  0.12464140     0.07300
C479        C  0.10377260  0.83851162  0.11481654     0.01100
H480        H  0.08088166  0.84975084  0.14385848     0.08700
H481        H  0.10367588  0.82762786  0.10544174     0.07800
N482        N  0.17014962  0.95697988  0.14900762    -0.36000
N483        N  0.19464542  0.97470977  0.14250638    -0.28200
C484        C  0.20796823  0.00178987  0.14940052    -0.03400
C485        C  0.19097734  0.00164072  0.16088355     0.05200
C486        C  0.16692623  0.97285338  0.16030873     0.03300
H487        H  0.22805709  0.02072763  0.14613432     0.08400
H488        H  0.14869087  0.96399669  0.16756827     0.07200
N489        N  0.80313834  0.96760970  0.14430353    -0.27200
N490        N  0.83343012  0.95564581  0.14930503    -0.35000
C491        C  0.83943575  0.97346754  0.16007483     0.01200
C492        C  0.81126273  0.99745059  0.16196788     0.07200
C493        C  0.78882157  0.99288758  0.15177393    -0.05900
H494        H  0.86255792  0.96926557  0.16605804     0.07800
H495        H  0.76452887  0.00783724  0.14966550     0.09000
Cu496      Cu  0.86467474  0.91579134  0.14094426     0.44200
Cu497      Cu  0.78418741  0.95228223  0.12694557     0.42000
Cu498      Cu  0.84007053  0.89346666  0.10862160     0.43900
N499        N  0.88973890  0.87591291  0.13035859    -0.34600
N500        N  0.88181143  0.86868524  0.11856113    -0.28800
C501        C  0.90333599  0.84179079  0.11455154    -0.04900
C502        C  0.92544504  0.83128607  0.12432174     0.07300
C503        C  0.91603589  0.85344504  0.13418790     0.01100
H504        H  0.90231551  0.83011960  0.10529904     0.08700
H505        H  0.92751996  0.85332154  0.14347803     0.07800
N506        N  0.79396202  0.91872349  0.10157550    -0.36000
N507        N  0.77355403  0.94009216  0.10846195    -0.28200
C508        C  0.74633651  0.95285870  0.10145911    -0.03400
C509        C  0.74941384  0.93880166  0.08952268     0.05200
C510        C  0.77991294  0.91706845  0.08996902     0.03300
H511        H  0.72569624  0.97093817  0.10487510     0.08400
H512        H  0.79136315  0.90160359  0.08238299     0.07200
N513        N  0.79108043  0.54474126  0.14400552    -0.27200
N514        N  0.81998587  0.55737337  0.14971622    -0.35000
C515        C  0.82302099  0.54094451  0.16089807     0.01200
C516        C  0.79438237  0.51708496  0.16227012     0.07200
C517        C  0.77471916  0.52039269  0.15135659    -0.05900
H518        H  0.84471477  0.54565388  0.16744807     0.07800
H519        H  0.75118177  0.50500430  0.14866820     0.09000
Cu520      Cu  0.85382412  0.59539782  0.14137391     0.44200
Cu521      Cu  0.77729125  0.55822615  0.12600544     0.42000
Cu522      Cu  0.83447412  0.61719391  0.10827051     0.43900
N523        N  0.88259777  0.63257663  0.13060608    -0.34600
N524        N  0.87620220  0.63955145  0.11867211    -0.28800
C525        C  0.89989048  0.66446289  0.11463688    -0.04900
C526        C  0.92199392  0.67394590  0.12449418     0.07300
C527        C  0.91026520  0.65329521  0.13447199     0.01100
H528        H  0.90037972  0.67549880  0.10528182     0.08700
H529        H  0.92100411  0.65335443  0.14386771     0.07800
N530        N  0.78921391  0.59220673  0.10080681    -0.36000
N531        N  0.76868255  0.57054516  0.10752897    -0.28200
C532        C  0.74181274  0.55790726  0.10042590    -0.03400
C533        C  0.74527059  0.57224870  0.08856261     0.05200
C534        C  0.77562055  0.59413240  0.08914673     0.03300
H535        H  0.72101223  0.53993259  0.10379483     0.08400
H536        H  0.78719148  0.60994656  0.08166185     0.07200
N537        N  0.19795410  0.53153311  0.14473445    -0.27200
N538        N  0.17165393  0.54842789  0.15060619    -0.35000
C539        C  0.16905768  0.53500346  0.16226191     0.01200
C540        C  0.19529605  0.50858895  0.16373748     0.07200
C541        C  0.21306977  0.50731829  0.15241286    -0.05900
H542        H  0.14922758  0.54347549  0.16905323     0.07800
H543        H  0.23435130  0.48899676  0.14969623     0.09000
Cu544      Cu  0.14087020  0.58804357  0.14190190     0.44200
Cu545      Cu  0.21071424  0.53990415  0.12634033     0.42000
Cu546      Cu  0.16369014  0.60764959  0.10890327     0.43900
N547        N  0.11579583  0.62708965  0.13093452    -0.34600
N548        N  0.12337354  0.63371153  0.11906180    -0.28800
C549        C  0.10157386  0.66022079  0.11492194    -0.04900
C550        C  0.07955858  0.67098293  0.12466240     0.07300
C551        C  0.08937276  0.64949435  0.13465616     0.01100
H552        H  0.10209390  0.67119973  0.10555934     0.08700
H553        H  0.07800013  0.64994301  0.14395631     0.07800
N554        N  0.20598068  0.57731473  0.10155666    -0.36000
N555        N  0.22245783  0.55205818  0.10811049    -0.28200
C556        C  0.24863486  0.53716825  0.10121639    -0.03400
C557        C  0.24905222  0.55380917  0.08964757    -0.04400
C558        C  0.22155807  0.57927808  0.09021102     0.03300
H559        H  0.26661463  0.51639947  0.10460573     0.08400
H560        H  0.21344556  0.59791280  0.08296386     0.07200
N561        N  0.29959591  0.97070404  0.35775457    -0.27200
N562        N  0.32595667  0.95572774  0.35129631    -0.35000
C563        C  0.32820974  0.97233624  0.34010279     0.01200
C564        C  0.30166707  0.99877941  0.33951326     0.07200
C565        C  0.28420803  0.99680186  0.35090695    -0.05900
H566        H  0.34751825  0.96548049  0.33292198     0.07800
H567        H  0.26235921  0.01365071  0.35416395     0.09000
Cu568      Cu  0.35662970  0.91333166  0.35850911     0.44200
Cu569      Cu  0.28605542  0.95665914  0.37580459     0.42000
Cu570      Cu  0.33587368  0.88851550  0.39145798     0.43900
N571        N  0.38204225  0.87233560  0.36861346    -0.34600
N572        N  0.37519192  0.86435587  0.38044421    -0.28800
C573        C  0.39727250  0.83760344  0.38411678    -0.04900
C574        C  0.41875099  0.82795416  0.37413848     0.07300
C575        C  0.40835241  0.85037995  0.36444831     0.01100
H576        H  0.39739674  0.82580361  0.39336116     0.08700
H577        H  0.41945882  0.85108356  0.35511077     0.07800
N578        N  0.29415848  0.91650052  0.40003803    -0.36000
N579        N  0.27615295  0.94191854  0.39407373    -0.28200
C580        C  0.25082862  0.95551710  0.40165066    -0.03400
C581        C  0.25266116  0.93783556  0.41304088     0.05200
C582        C  0.28049702  0.91305550  0.41164950     0.03300
H583        H  0.23190960  0.97621735  0.39888167     0.08400
H584        H  0.29012417  0.89395956  0.41852540     0.07200
N585        N  0.72508858  0.93700287  0.38987112    -0.27200
N586        N  0.70765868  0.91210904  0.39629010    -0.35000
C587        C  0.72327832  0.90879988  0.40761332     0.01200
C588        C  0.75171426  0.93318965  0.40833471     0.07200
C589        C  0.75196224  0.95036665  0.39685046    -0.05900
H590        H  0.71402947  0.89070069  0.41486374     0.07800
H591        H  0.77022789  0.97123951  0.39372951     0.09000
Cu592      Cu  0.66276767  0.88604245  0.38890152     0.44200
Cu593      Cu  0.71083949  0.95328961  0.37213167     0.42000
Cu594      Cu  0.63462099  0.91487354  0.35683975     0.43900
N595        N  0.62033587  0.86405290  0.37869580    -0.34600
N596        N  0.61092198  0.87340688  0.36719404    -0.28800
C597        C  0.58363388  0.85202660  0.36342665    -0.04900
C598        C  0.57529509  0.82853545  0.37303696     0.07300
C599        C  0.59892536  0.83698900  0.38256153     0.01100
H600        H  0.57063489  0.85370240  0.35439804     0.08700
H601        H  0.60089354  0.82396920  0.39158320     0.07800
N602        N  0.66489989  0.95666327  0.34902928    -0.36000
N603        N  0.69318650  0.97023645  0.35483395    -0.28200
C604        C  0.70784700  0.99634911  0.34780235    -0.03400
C605        C  0.68796807  0.99978154  0.33688992     0.05200
C606        C  0.66079340  0.97399777  0.33803783     0.03300
H607        H  0.73143534  0.01149304  0.35054898     0.08400
H608        H  0.63957741  0.96816173  0.33141637     0.07200
N609        N  0.68538978  0.52133089  0.35780522    -0.27200
N610        N  0.66223934  0.53964304  0.35091001    -0.35000
C611        C  0.65867475  0.52282786  0.33980550     0.01200
C612        C  0.68084508  0.49253553  0.33976332     0.07200
C613        C  0.69713145  0.49265079  0.35140389    -0.05900
H614        H  0.64157788  0.53228472  0.33230784     0.07800
H615        H  0.71631263  0.47347797  0.35509544     0.09000
Cu616      Cu  0.63700598  0.58620775  0.35746182     0.44200
Cu617      Cu  0.70165957  0.53541664  0.37550537     0.42000
Cu618      Cu  0.66008625  0.61057099  0.38997441     0.43900
N619        N  0.61286993  0.62777921  0.36759651    -0.34600
N620        N  0.62033815  0.63541421  0.37940069    -0.28800
C621        C  0.59836746  0.66194220  0.38331690    -0.04900
C622        C  0.57626507  0.67178050  0.37351117     0.07300
C623        C  0.58622610  0.64971476  0.36367693     0.01100
H624        H  0.59865479  0.67336346  0.39261401     0.08700
H625        H  0.57445678  0.64909686  0.35443329     0.07800
N626        N  0.70166726  0.58198731  0.39829179    -0.36000
N627        N  0.71666678  0.55381105  0.39286109    -0.28200
C628        C  0.74312717  0.54103416  0.40016408    -0.03400
C629        C  0.74512346  0.56229448  0.41077740     0.05200
C630        C  0.71834413  0.58808974  0.40925006     0.03300
H631        H  0.76023742  0.51852837  0.39769308     0.08400
H632        H  0.71149481  0.60977534  0.41557105     0.07200
N633        N  0.30653927  0.52245912  0.36050519    -0.27200
N634        N  0.33017130  0.54015443  0.35362216    -0.35000
C635        C  0.33142080  0.52495758  0.34220935     0.01200
C636        C  0.30705420  0.49652777  0.34192039     0.07200
C637        C  0.29185129  0.49587701  0.35371397    -0.05900
H638        H  0.34843855  0.53425747  0.33466871     0.07800
H639        H  0.27191466  0.47717197  0.35723410     0.09000
Cu640      Cu  0.35852742  0.58427596  0.36040791     0.44200
Cu641      Cu  0.29504576  0.53467448  0.37879913     0.42000
Cu642      Cu  0.33809735  0.61007122  0.39305805     0.43900
N643        N  0.38319951  0.62617292  0.37004441    -0.34600
N644        N  0.37659429  0.63467369  0.38183620    -0.28800
C645        C  0.39846074  0.66189195  0.38523067    -0.04900
C646        C  0.41948107  0.67118569  0.37508187     0.07300
C647        C  0.40907859  0.64813783  0.36560693     0.01100
H648        H  0.39883298  0.67415002  0.39439874     0.08700
H649        H  0.41995611  0.64693572  0.35624392     0.07800
N650        N  0.29784842  0.58057532  0.40182800    -0.36000
N651        N  0.28305131  0.55203220  0.39653314    -0.28200
C652        C  0.25711382  0.53897243  0.40396657    -0.03400
C653        C  0.25502541  0.56050667  0.41447592     0.05200
C654        C  0.28131811  0.58672895  0.41281873     0.03300
H655        H  0.23975517  0.51660516  0.40152451     0.08400
H656        H  0.28747964  0.60901922  0.41897945     0.07200
O657        O  0.96456224  0.79010382  0.13472081    -0.72800
O658        O  0.03970605  0.71166152  0.13487186    -0.73800
O659        O  0.04093175  0.78868351  0.13486710    -0.62400
O660        O  0.96327900  0.71294212  0.13482361    -0.70900
O661        O  0.96309339  0.71311333  0.11409078    -0.70400
O662        O  0.04158924  0.78836536  0.11413574    -0.61700
O663        O  0.04022642  0.71174434  0.11414058    -0.74200
O664        O  0.96446553  0.78981050  0.11399149    -0.72900
Cu665      Cu  0.00210814  0.75083041  0.13553380     1.04600
Cu666      Cu  0.00234318  0.75073595  0.11335890     1.04300
C667        C  0.95273307  0.80236332  0.12433686     0.93400
C668        C  0.05187638  0.69945098  0.12454039     0.92500
C669        C  0.05352749  0.80041281  0.12453354     0.84600
C670        C  0.95085937  0.70120187  0.12446472     0.90900
O671        O  0.53454248  0.78828905  0.36297673    -0.72800
O672        O  0.45873113  0.71061742  0.36404065    -0.73800
O673        O  0.45824498  0.78768984  0.36357695    -0.62400
O674        O  0.53507723  0.71114350  0.36331037    -0.70900
O675        O  0.53667481  0.71197439  0.38403924    -0.70400
O676        O  0.45958774  0.78823232  0.38430988    -0.61700
O677        O  0.45992295  0.71199248  0.38477407    -0.74200
O678        O  0.53637183  0.78827638  0.38370853    -0.72900
Cu679      Cu  0.49659363  0.74938609  0.36274579     1.04600
Cu680      Cu  0.49819190  0.75014650  0.38492776     1.04300
C681        C  0.54740784  0.80041610  0.37322336     0.93400
C682        C  0.44734141  0.69923619  0.37459414     0.92500
C683        C  0.44683881  0.79999349  0.37399100     0.84600
C684        C  0.54800230  0.69957040  0.37362081     0.90900
O685        O  0.45621861  0.21306066  0.61416550    -0.72800
O686        O  0.53324772  0.28950894  0.61352698    -0.73800
O687        O  0.53336312  0.21293758  0.61366700    -0.62400
O688        O  0.45623553  0.28956443  0.61420409    -0.70900
O689        O  0.45817445  0.28995197  0.63493042    -0.70400
O690        O  0.53380127  0.21257783  0.63440413    -0.61700
O691        O  0.53436774  0.28951102  0.63426330    -0.74200
O692        O  0.45762305  0.21303659  0.63489688    -0.72900
Cu693      Cu  0.49473658  0.25126898  0.61315234     1.04600
Cu694      Cu  0.49606567  0.25128497  0.63533372     1.04300
C695        C  0.44474907  0.20109106  0.62462744     0.93400
C696        C  0.54587589  0.30153692  0.62381478     0.92500
C697        C  0.54551250  0.20057433  0.62399723     0.84600
C698        C  0.44512085  0.30178861  0.62468142     0.90900
O699        O  0.95656772  0.28651594  0.88454944    -0.72800
O700        O  0.03627442  0.21252923  0.88465107    -0.73800
O701        O  0.03373100  0.28873744  0.88531913    -0.62400
O702        O  0.95954909  0.21007597  0.88415650    -0.70900
O703        O  0.96057413  0.21055142  0.86342683    -0.70400
O704        O  0.03449195  0.29065128  0.86459568    -0.61700
O705        O  0.03685176  0.21354643  0.86391423    -0.74200
O706        O  0.95800855  0.28764049  0.86382664    -0.72900
Cu707      Cu  0.99648121  0.24944520  0.88538892     1.04600
Cu708      Cu  0.99755422  0.25066887  0.86321441     1.04300
C709        C  0.94468297  0.29861127  0.87413869     0.93400
C710        C  0.04891851  0.20132389  0.87425149     0.92500
C711        C  0.04583916  0.30209006  0.87516409     0.84600
C712        C  0.94843985  0.19779698  0.87369807     0.90900
C713        C  0.20092786  0.48385565  0.17439505    -0.01200
C714        C  0.17280259  0.47631320  0.18268375    -0.09200
C715        C  0.17686061  0.45017196  0.19195750    -0.18000
C716        C  0.20946240  0.43073220  0.19325579     0.04400
C717        C  0.23850793  0.43977893  0.18519652     0.18500
C718        C  0.23395750  0.46597448  0.17587522    -0.19500
C719        C  0.27180357  0.42235879  0.18638195    -0.20700
C720        C  0.27689928  0.39592099  0.19541184    -0.19300
C721        C  0.24860380  0.38578480  0.20329246     0.19900
C722        C  0.21429941  0.40269796  0.20223650     0.02000
C723        C  0.18618398  0.39036088  0.21007514    -0.14000
C724        C  0.19208777  0.36280002  0.21868969    -0.11700
C725        C  0.22609073  0.34705908  0.21985290     0.01600
C726        C  0.25430029  0.35858621  0.21218571    -0.23900
H727        H  0.14707576  0.48982449  0.18177524     0.09600
H728        H  0.15392092  0.44577231  0.19792425     0.13200
H729        H  0.25620505  0.47221749  0.16968592     0.11900
H730        H  0.29408590  0.42926803  0.18029097     0.13100
H731        H  0.30302884  0.38301574  0.19613965     0.12100
H732        H  0.15923184  0.40106409  0.20967654     0.09200
H733        H  0.17007973  0.35382532  0.22456801     0.12400
H734        H  0.28057723  0.34603931  0.21310471     0.14300
C735        C  0.22513614  0.15881040  0.21877063    -0.01200
C736        C  0.25388604  0.14992268  0.21092452    -0.09200
C737        C  0.24964095  0.12441396  0.20144576    -0.18000
C738        C  0.21634899  0.10645661  0.19962395     0.04400
C739        C  0.18731371  0.11544575  0.20771654     0.18500
C740        C  0.19189690  0.14153746  0.21712968    -0.19500
C741        C  0.15387562  0.09838775  0.20635067    -0.20700
C742        C  0.14854939  0.07251462  0.19711253    -0.19300
C743        C  0.17650796  0.06302832  0.18897878     0.19900
C744        C  0.21081624  0.07993118  0.19010030     0.02000
C745        C  0.23806549  0.06955083  0.18161697    -0.14000
C746        C  0.23140718  0.04396644  0.17235281    -0.11700
C747        C  0.19758923  0.02746843  0.17122011     0.01600
C748        C  0.17030492  0.03686902  0.17966407    -0.23900
H749        H  0.27973261  0.16310961  0.21209374     0.09600
H750        H  0.27299510  0.11931700  0.19575093     0.13200
H751        H  0.16962717  0.14849054  0.22322407     0.11900
H752        H  0.13164434  0.10509952  0.21248423     0.13100
H753        H  0.12231796  0.05985452  0.19631507     0.12100
H754        H  0.26481691  0.08080148  0.18182208     0.09200
H755        H  0.25311449  0.03692225  0.16605640     0.12400
H756        H  0.14396155  0.02446121  0.17880480     0.14300
C757        C  0.29881199  0.47175884  0.33145907    -0.01200
C758        C  0.26620453  0.45273910  0.33131982    -0.09200
C759        C  0.25840335  0.42830735  0.32181777    -0.18000
C760        C  0.28324222  0.42177182  0.31207897     0.04400
C761        C  0.31614661  0.44147440  0.31214620     0.18500
C762        C  0.32351195  0.46631173  0.32174127    -0.19500
C763        C  0.34169413  0.43592511  0.30272732    -0.20700
C764        C  0.33546592  0.41089472  0.29329165    -0.19300
C765        C  0.30352473  0.39080168  0.29303582     0.19900
C766        C  0.27679908  0.39610791  0.30238421     0.02000
C767        C  0.24496000  0.37514582  0.30169599    -0.14000
C768        C  0.24020775  0.34964718  0.29227963    -0.11700
C769        C  0.26670543  0.34439655  0.28322847     0.01600
C770        C  0.29819809  0.36515319  0.28354021    -0.23900
H771        H  0.24632153  0.45681092  0.33857408     0.09600
H772        H  0.23275552  0.41484620  0.32244831     0.13200
H773        H  0.34891448  0.48074437  0.32178244     0.11900
H774        H  0.36680904  0.45086662  0.30270783     0.13100
H775        H  0.35589610  0.40705188  0.28618658     0.12100
H776        H  0.22326728  0.37755827  0.30831246     0.09200
H777        H  0.21564833  0.33384078  0.29203817     0.12400
H778        H  0.31860940  0.36102005  0.27643954     0.14300
C779        C  0.26113743  0.15742508  0.28271164    -0.01200
C780        C  0.23343873  0.14909394  0.29104716    -0.09200
C781        C  0.23842026  0.12283157  0.30024308    -0.18000
C782        C  0.27160143  0.10418222  0.30137535     0.04400
C783        C  0.29968749  0.11320659  0.29288799     0.18500
C784        C  0.29414910  0.13949186  0.28363581    -0.19500
C785        C  0.33319657  0.09607919  0.29371533    -0.20700
C786        C  0.33957014  0.07007926  0.30281742    -0.19300
C787        C  0.31253099  0.06039722  0.31128943     0.19900
C788        C  0.27807783  0.07718224  0.31065675     0.02000
C789        C  0.25167090  0.06622988  0.31937014    -0.14000
C790        C  0.25942817  0.04050928  0.32849257    -0.11700
C791        C  0.29358321  0.02452387  0.32926272     0.01600
C792        C  0.31988295  0.03423987  0.32048777    -0.23900
H793        H  0.20784159  0.16304420  0.29042568     0.09600
H794        H  0.21587759  0.11795945  0.30634577     0.13200
H795        H  0.31559153  0.14632312  0.27717414     0.11900
H796        H  0.35470733  0.10293736  0.28729432     0.13100
H797        H  0.36588561  0.05745890  0.30323712     0.12100
H798        H  0.22474511  0.07706425  0.31943130     0.09200
H799        H  0.23832496  0.03306571  0.33497500     0.12400
H800        H  0.34642775  0.02213609  0.32099631     0.14300
C801        C  0.72498431  0.94567103  0.07877795    -0.01200
C802        C  0.72130930  0.92038632  0.06913670    -0.09200
C803        C  0.69652656  0.92586754  0.05944603    -0.18000
C804        C  0.67470637  0.95719410  0.05903634     0.04400
C805        C  0.67993215  0.98356697  0.06850805     0.18500
C806        C  0.70452671  0.97745500  0.07826506    -0.19500
C807        C  0.66032131  0.01581239  0.06828194    -0.20700
C808        C  0.63513033  0.02230892  0.05894624    -0.19300
C809        C  0.62831180  0.99640317  0.04974918     0.19900
C810        C  0.64778321  0.96331392  0.04966993     0.02000
C811        C  0.63874694  0.93757388  0.04040841    -0.14000
C812        C  0.61148139  0.94444615  0.03168371    -0.11700
C813        C  0.59294141  0.97734777  0.03172180     0.01600
C814        C  0.60173948  0.00330197  0.04070686    -0.23900
H815        H  0.73697511  0.89574492  0.06924127     0.09600
H816        H  0.69501333  0.90509657  0.05242522     0.13200
H817        H  0.70776867  0.99767957  0.08548671     0.11900
H818        H  0.66442305  0.03616085  0.07541020     0.13100
H819        H  0.62037990  0.04754845  0.05905613     0.12100
H820        H  0.65179563  0.91165859  0.03981237     0.09200
H821        H  0.60500506  0.92411396  0.02477116     0.12400
H822        H  0.58743705  0.02882518  0.04071491     0.14300
C823        C  0.40409689  0.98510539  0.03062707    -0.01200
C824        C  0.39394885  0.01385038  0.03828680    -0.09200
C825        C  0.36744756  0.00931903  0.04738860    -0.18000
C826        C  0.35005577  0.97563613  0.04905190     0.04400
C827        C  0.36017202  0.94670772  0.04105486     0.18500
C828        C  0.38705358  0.95166316  0.03197325    -0.19500
C829        C  0.34367747  0.91292077  0.04225505    -0.20700
C830        C  0.31763923  0.90697860  0.05136286    -0.19300
C831        C  0.30741632  0.93468017  0.05950078     0.19900
C832        C  0.32332374  0.96949104  0.05842092     0.02000
C833        C  0.31203423  0.99650655  0.06686352    -0.14000
C834        C  0.28678181  0.98903497  0.07613669    -0.11700
C835        C  0.27164837  0.95457100  0.07732490     0.01600
C836        C  0.28169564  0.92762308  0.06883991    -0.23900
H837        H  0.40694584  0.03987655  0.03728287     0.09600
H838        H  0.36136563  0.03267028  0.05298243     0.13200
H839        H  0.39497143  0.92948575  0.02596867     0.11900
H840        H  0.35117315  0.89082301  0.03616118     0.13100
H841        H  0.30560544  0.88041306  0.05210893     0.12100
H842        H  0.32237251  0.02365140  0.06664403     0.09200
H843        H  0.27908378  0.01056457  0.08242084     0.12400
H844        H  0.27028657  0.90081379  0.06971040     0.14300
C845        C  0.72845669  0.05473026  0.92234855    -0.01200
C846        C  0.72941244  0.07824625  0.93261618    -0.09200
C847        C  0.70416887  0.07528466  0.94229201    -0.18000
C848        C  0.67684232  0.04863252  0.94198921     0.04400
C849        C  0.67625977  0.02472035  0.93161979     0.18500
C850        C  0.70191229  0.02778190  0.92207730    -0.19500
C851        C  0.64979198  0.99797169  0.93069668    -0.20700
C852        C  0.62348086  0.99456464  0.93980533    -0.19300
C853        C  0.62317485  0.01757781  0.95013450     0.19900
C854        C  0.64993251  0.04484823  0.95148413     0.02000
C855        C  0.64843458  0.06693966  0.96227047    -0.14000
C856        C  0.62153264  0.06199090  0.97127455    -0.11700
C857        C  0.59538055  0.03514537  0.96975727     0.01600
C858        C  0.59624824  0.01320049  0.95917568    -0.23900
H859        H  0.74950616  0.09933043  0.93318331     0.09600
H860        H  0.70650811  0.09447110  0.94980851     0.13200
H861        H  0.70068465  0.00905812  0.91434736     0.11900
H862        H  0.64925191  0.97967892  0.92280297     0.13100
H863        H  0.60322776  0.97369282  0.93876961     0.12100
H864        H  0.66775233  0.08804180  0.96404308     0.09200
H865        H  0.62115080  0.07905502  0.97948417     0.12400
H866        H  0.57601876  0.99228801  0.95809330     0.14300
C867        C  0.40897325  0.03839673  0.96822427    -0.01200
C868        C  0.38049225  0.06240750  0.97035060    -0.09200
C869        C  0.35503370  0.06942360  0.96101312    -0.18000
C870        C  0.35755233  0.05274801  0.94914796     0.04400
C871        C  0.38678482  0.02862196  0.94707517     0.18500
C872        C  0.41195331  0.02170139  0.95655955    -0.19500
C873        C  0.39075570  0.01136015  0.93555438    -0.20700
C874        C  0.36623548  0.01736619  0.92599408    -0.19300
C875        C  0.33721584  0.04094731  0.92768294     0.19900
C876        C  0.33234641  0.05907440  0.93925181     0.02000
C877        C  0.30258079  0.08274974  0.94032864    -0.14000
C878        C  0.27896088  0.08829911  0.93030721    -0.11700
C879        C  0.28402832  0.07043518  0.91889217     0.01600
C880        C  0.31319701  0.04658714  0.91775883    -0.23900
H881        H  0.37792807  0.07571207  0.97931160     0.09600
H882        H  0.33377761  0.08802122  0.96335630     0.13200
H883        H  0.43399531  0.00308287  0.95491061     0.11900
H884        H  0.41298778  0.99299242  0.93392681     0.13100
H885        H  0.37008916  0.00351995  0.91718091     0.12100
H886        H  0.29693775  0.09753874  0.94876451     0.09200
H887        H  0.25680822  0.10691826  0.93154337     0.12400
H888        H  0.31758799  0.03220671  0.90910598     0.14300
C889        C  0.76365994  0.35135243  0.21730423    -0.01200
C890        C  0.73312751  0.36602115  0.21159490    -0.09200
C891        C  0.73636245  0.39411604  0.20295450    -0.18000
C892        C  0.77053329  0.40852841  0.19980908     0.04400
C893        C  0.80135260  0.39384022  0.20588680     0.18500
C894        C  0.79766322  0.36539151  0.21447810    -0.19500
C895        C  0.83569494  0.40758387  0.20335154    -0.20700
C896        C  0.84027918  0.43541417  0.19479736    -0.19300
C897        C  0.81069606  0.44993177  0.18843944     0.19900
C898        C  0.77534755  0.43673337  0.19082371     0.02000
C899        C  0.74656560  0.45187792  0.18391350    -0.14000
C900        C  0.75282388  0.47827522  0.17484577    -0.11700
C901        C  0.78774724  0.49094556  0.17248802     0.01600
C902        C  0.81645687  0.47706960  0.17948631    -0.23900
H903        H  0.70663535  0.35559963  0.21384700     0.09600
H904        H  0.71163709  0.40403635  0.19895185     0.13200
H905        H  0.82122365  0.35420331  0.21905782     0.11900
H906        H  0.85923685  0.39665510  0.20800154     0.13100
H907        H  0.86727331  0.44532900  0.19301343     0.12100
H908        H  0.71900338  0.44342682  0.18511160     0.09200
H909        H  0.73012205  0.48877763  0.16962648     0.12400
H910        H  0.84362105  0.48639406  0.17763319     0.14300
C911        C  0.77655368  0.16355406  0.21623977    -0.01200
C912        C  0.81201542  0.15551275  0.21290405    -0.09200
C913        C  0.81928758  0.12782108  0.20443562    -0.18000
C914        C  0.79098741  0.10748648  0.19902858     0.04400
C915        C  0.75494799  0.11670407  0.20227554     0.18500
C916        C  0.74813105  0.14427520  0.21090963    -0.19500
C917        C  0.72590123  0.09845075  0.19686402    -0.20700
C918        C  0.73177100  0.07159078  0.18806770    -0.19300
C919        C  0.76684372  0.06172018  0.18471281     0.19900
C920        C  0.79702050  0.07879012  0.19037512     0.02000
C921        C  0.83181457  0.06627684  0.18712190    -0.14000
C922        C  0.83636666  0.03911235  0.17820405    -0.11700
C923        C  0.80653929  0.02388880  0.17217744     0.01600
C924        C  0.77186654  0.03496619  0.17562650    -0.23900
H925        H  0.83415002  0.17041396  0.21702366     0.09600
H926        H  0.84723268  0.12318294  0.20223770     0.13200
H927        H  0.72067691  0.15077892  0.21355848     0.11900
H928        H  0.69841870  0.10538192  0.19930883     0.13100
H929        H  0.70868754  0.05839952  0.18386442     0.12100
H930        H  0.85600774  0.07690193  0.19130441     0.09200
H931        H  0.86341804  0.03076735  0.17575545     0.12400
H932        H  0.74859887  0.02265296  0.17122439     0.14300
C933        C  0.68738998  0.46620262  0.32954775    -0.01200
C934        C  0.71573353  0.44138522  0.33060585    -0.09200
C935        C  0.72290178  0.41665665  0.32118225    -0.18000
C936        C  0.70193731  0.41572637  0.31019359     0.04400
C937        C  0.67314370  0.44083260  0.30905697     0.18500
C938        C  0.66608927  0.46568657  0.31870270    -0.19500
C939        C  0.65172213  0.44103708  0.29828256    -0.20700
C940        C  0.65834218  0.41686242  0.28860246    -0.19300
C941        C  0.68644101  0.39178080  0.28948248     0.19900
C942        C  0.70865133  0.39083165  0.30030961     0.02000
C943        C  0.73662520  0.36491449  0.30079174    -0.14000
C944        C  0.74218950  0.34098349  0.29098693    -0.11700
C945        C  0.72025974  0.34201583  0.28041292     0.01600
C946        C  0.69245841  0.36745169  0.27963523    -0.23900
H947        H  0.73310960  0.44104740  0.33870318     0.09600
H948        H  0.74529228  0.39881508  0.32281926     0.13200
H949        H  0.64398567  0.48455867  0.31772610     0.11900
H950        H  0.62973400  0.46008160  0.29732214     0.13100
H951        H  0.64130915  0.41773494  0.28038178     0.12100
H952        H  0.75468461  0.36221380  0.30860155     0.09200
H953        H  0.76379733  0.32140255  0.29164439     0.12400
H954        H  0.67547512  0.36805412  0.27139196     0.14300
C955        C  0.69476857  0.02550180  0.32641538    -0.01200
C956        C  0.67380359  0.02472050  0.31551333    -0.09200
C957        C  0.68017731  0.04899996  0.30572784    -0.18000
C958        C  0.70782143  0.07523957  0.30652666     0.04400
C959        C  0.72892736  0.07600618  0.31759870     0.18500
C960        C  0.72242571  0.05129306  0.32729046    -0.19500
C961        C  0.75619806  0.10178127  0.31904990    -0.20700
C962        C  0.76252022  0.12744332  0.30984721    -0.19300
C963        C  0.74211887  0.12767562  0.29886245     0.19900
C964        C  0.71492016  0.10116391  0.29689646     0.02000
C965        C  0.69596328  0.10203558  0.28541790    -0.14000
C966        C  0.70296954  0.12875838  0.27650226    -0.11700
C967        C  0.72891907  0.15540359  0.27872425     0.01600
C968        C  0.74862540  0.15452224  0.28986051    -0.23900
H969        H  0.65227039  0.00527673  0.31447055     0.09600
H970        H  0.66272442  0.04681603  0.29771893     0.13200
H971        H  0.73891765  0.05271749  0.33560622     0.11900
H972        H  0.77244286  0.10245209  0.32746303     0.13100
H973        H  0.78346083  0.14736771  0.31135923     0.12100
H974        H  0.67554217  0.08250827  0.28306854     0.09200
H975        H  0.68772061  0.12895882  0.26787285     0.12400
H976        H  0.76898443  0.17498027  0.29151229     0.14300
C977        C  0.27453409  0.54644422  0.07928328    -0.01200
C978        C  0.29547820  0.51496263  0.07938294    -0.09200
C979        C  0.32065761  0.50824946  0.07002334    -0.18000
C980        C  0.32590849  0.53298020  0.06014660     0.04400
C981        C  0.30396280  0.56442495  0.05986729     0.18500
C982        C  0.27868381  0.57087277  0.06938442    -0.19500
C983        C  0.30753689  0.58939337  0.05013439    -0.20700
C984        C  0.33262406  0.58394082  0.04068171    -0.19300
C985        C  0.35506850  0.55360929  0.04080827     0.19900
C986        C  0.35215971  0.52769796  0.05057276     0.02000
C987        C  0.37603909  0.49791514  0.05041473    -0.14000
C988        C  0.40159412  0.49410711  0.04097615    -0.11700
C989        C  0.40402701  0.51954242  0.03140307     0.01600
C990        C  0.38072739  0.54917469  0.03128817    -0.23900
H991        H  0.29246216  0.49509921  0.08671295     0.09600
H992        H  0.33548464  0.48337348  0.07080236     0.13200
H993        H  0.26269077  0.59530771  0.06915186     0.11900
H994        H  0.29081620  0.61335377  0.04983388     0.13100
H995        H  0.33472787  0.60378717  0.03327990     0.12100
H996        H  0.37601090  0.47730147  0.05750403     0.09200
H997        H  0.41968055  0.47115934  0.04113546     0.12400
H998        H  0.38294435  0.56891429  0.02384769     0.14300
C999        C  0.58945863  0.53253502  0.03105404    -0.01200
C1000       C  0.61092490  0.56334002  0.02989308    -0.09200
C1001       C  0.63738655  0.57101618  0.03880572    -0.18000
C1002       C  0.64317438  0.54769145  0.04909901     0.04400
C1003       C  0.62100561  0.51645193  0.05010889     0.18500
C1004       C  0.59439176  0.50937457  0.04117497    -0.19500
C1005       C  0.62563130  0.49220367  0.05997251    -0.20700
C1006       C  0.65175356  0.49830445  0.06897669    -0.19300
C1007       C  0.67369672  0.52893524  0.06837805     0.19900
C1008       C  0.66998708  0.55407795  0.05843191     0.02000
C1009       C  0.69314724  0.58447333  0.05836200    -0.14000
C1010       C  0.71819424  0.58999037  0.06795218    -0.11700
C1011       C  0.72091541  0.56549438  0.07786793     0.01600
C1012       C  0.69902515  0.53471396  0.07784540    -0.23900
H1013       H  0.60727214  0.58135215  0.02202315     0.09600
H1014       H  0.65297654  0.59517801  0.03734101     0.13200
H1015       H  0.57769986  0.48543584  0.04195350     0.11900
H1016       H  0.60889400  0.46832549  0.06073502     0.13100
H1017       H  0.65459029  0.47905676  0.07653995     0.12100
H1018       H  0.69224227  0.60468096  0.05113143     0.09200
H1019       H  0.73482157  0.61399360  0.06774776     0.12400
H1020       H  0.70142224  0.51508066  0.08529805     0.14300
C1021       C  0.40560182  0.47208908  0.96876702    -0.01200
C1022       C  0.38938510  0.50297692  0.96383887    -0.09200
C1023       C  0.36192024  0.50017060  0.95498790    -0.18000
C1024       C  0.34961503  0.46604711  0.95083863     0.04400
C1025       C  0.36603173  0.43473579  0.95603487     0.18500
C1026       C  0.39397015  0.43802754  0.96484973    -0.19500
C1027       C  0.35426857  0.40036074  0.95247377    -0.20700
C1028       C  0.32645424  0.39630185  0.94386774    -0.19300
C1029       C  0.31000684  0.42650689  0.93846145     0.19900
C1030       C  0.32156227  0.46184291  0.94178559     0.02000
C1031       C  0.30476023  0.49139730  0.93579590    -0.14000
C1032       C  0.27792039  0.48606306  0.92685915    -0.11700
C1033       C  0.26646500  0.45126071  0.92365234     0.01600
C1034       C  0.28236926  0.42156690  0.92960376    -0.23900
H1035       H  0.39799872  0.52945987  0.96691944     0.09600
H1036       H  0.35066187  0.52520905  0.95169444     0.13200
H1037       H  0.40639764  0.41414792  0.96881752     0.11900
H1038       H  0.36656094  0.37640510  0.95642316     0.13100
H1039       H  0.31792316  0.36929510  0.94134937     0.12100
H1040       H  0.31204370  0.51900545  0.93766327     0.09200
H1041       H  0.26593656  0.50949030  0.92246325     0.12400
H1042       H  0.27400335  0.39451527  0.92706827     0.14300
C1043       C  0.72857775  0.44783687  0.92324552    -0.01200
C1044       C  0.71576851  0.48264406  0.92570407    -0.09200
C1045       C  0.69079198  0.48880738  0.93519862    -0.18000
C1046       C  0.67723138  0.46004407  0.94250468     0.04400
C1047       C  0.69104928  0.42486208  0.94021150     0.18500
C1048       C  0.71673501  0.41916093  0.93074292    -0.19500
C1049       C  0.67853221  0.39545076  0.94718600    -0.20700
C1050       C  0.65204065  0.40005608  0.95624166    -0.19300
C1051       C  0.63738597  0.43420132  0.95856684     0.19900
C1052       C  0.65002696  0.46480172  0.95181826     0.02000
C1053       C  0.63444523  0.49874412  0.95455916    -0.14000
C1054       C  0.60725773  0.50202304  0.96346797    -0.11700
C1055       C  0.59462680  0.47179075  0.96989863     0.01600
C1056       C  0.60986947  0.43794915  0.96751997    -0.23900
H1057       H  0.72495103  0.50536009  0.92019117     0.09600
H1058       H  0.68224778  0.51634402  0.93642275     0.13200
H1059       H  0.72640928  0.39209345  0.92889135     0.11900
H1060       H  0.68899424  0.36857948  0.94551735     0.13100
H1061       H  0.64268370  0.37665606  0.96137880     0.12100
H1062       H  0.64248687  0.52329393  0.94995893     0.09200
H1063       H  0.59577330  0.52835701  0.96532546     0.12400
H1064       H  0.60014692  0.41460332  0.97261627     0.14300
C1065       C  0.90551162  0.97786057  0.46642707    -0.01200
C1066       C  0.88720446  0.94490893  0.46676693    -0.09200
C1067       C  0.86089488  0.93673193  0.45785646    -0.18000
C1068       C  0.85204214  0.96152938  0.44827369     0.04400
C1069       C  0.87061579  0.99517772  0.44809718     0.18500
C1070       C  0.89705481  0.00297740  0.45712383    -0.19500
C1071       C  0.86284834  0.02077424  0.43887490    -0.20700
C1072       C  0.83755941  0.01347168  0.42964112    -0.19300
C1073       C  0.81931685  0.98041215  0.42940106     0.19900
C1074       C  0.82584321  0.95408096  0.43878584     0.02000
C1075       C  0.80609731  0.92139721  0.43814608    -0.14000
C1076       C  0.78169832  0.91488564  0.42842281    -0.11700
C1077       C  0.77621322  0.94055925  0.41901085     0.01600
C1078       C  0.79482868  0.97346049  0.41970009    -0.23900
H1079       H  0.89336319  0.92539949  0.47399554     0.09600
H1080       H  0.84809215  0.91075688  0.45869791     0.13200
H1081       H  0.91110692  0.02863871  0.45695554     0.11900
H1082       H  0.87671173  0.04651856  0.43872437     0.13100
H1083       H  0.83248948  0.03373566  0.42255063     0.12100
H1084       H  0.80911274  0.90019438  0.44495182     0.09200
H1085       H  0.76765096  0.88928810  0.42815197     0.12400
H1086       H  0.79030438  0.99395826  0.41265739     0.14300
C1087       C  0.89796675  0.02977352  0.52865971    -0.01200
C1088       C  0.88048253  0.06315618  0.52924068    -0.09200
C1089       C  0.85331386  0.06926475  0.53803766    -0.18000
C1090       C  0.84333312  0.04212405  0.54669539     0.04400
C1091       C  0.86118542  0.00820975  0.54591497     0.18500
C1092       C  0.88771507  0.00223043  0.53683635    -0.19500
C1093       C  0.85298763  0.98058675  0.55434173    -0.20700
C1094       C  0.82773240  0.98597601  0.56370554    -0.19300
C1095       C  0.80976988  0.01900500  0.56479731     0.19900
C1096       C  0.81688286  0.04747160  0.55623664     0.02000
C1097       C  0.79741666  0.08003016  0.55771288    -0.14000
C1098       C  0.77258025  0.08427941  0.56742552    -0.11700
C1099       C  0.76636152  0.05639298  0.57600209     0.01600
C1100       C  0.78486904  0.02371030  0.57451059    -0.23900
H1101       H  0.88808603  0.08462115  0.52289489     0.09600
H1102       H  0.84114380  0.09565398  0.53797642     0.13200
H1103       H  0.90125766  0.97633604  0.53630712     0.11900
H1104       H  0.86655897  0.95473930  0.55378690     0.13100
H1105       H  0.82231485  0.96415489  0.57018288     0.12100
H1106       H  0.80088089  0.10276914  0.55155637     0.09200
H1107       H  0.75873839  0.10984354  0.56833461     0.12400
H1108       H  0.77990069  0.00162699  0.58091331     0.14300
C1109       C  0.22210129  0.04774399  0.57888492    -0.01200
C1110       C  0.20855914  0.01278448  0.57709999    -0.09200
C1111       C  0.18248861  0.00571133  0.56798513    -0.18000
C1112       C  0.16858757  0.03367003  0.56038212     0.04400
C1113       C  0.18290115  0.06897478  0.56208153     0.18500
C1114       C  0.20957574  0.07556926  0.57115842    -0.19500
C1115       C  0.17009180  0.09770236  0.55485231    -0.20700
C1116       C  0.14318638  0.09229875  0.54600764    -0.19300
C1117       C  0.12840200  0.05799656  0.54411613     0.19900
C1118       C  0.14088360  0.02805970  0.55124177     0.02000
C1119       C  0.12495280  0.99396150  0.54889714    -0.14000
C1120       C  0.09816925  0.98985669  0.53979436    -0.11700
C1121       C  0.08625818  0.01945834  0.53281842     0.01600
C1122       C  0.10129451  0.05346120  0.53505798    -0.23900
H1123       H  0.21811685  0.99063762  0.58280870     0.09600
H1124       H  0.17346459  0.97816307  0.56722837     0.13200
H1125       H  0.21969520  0.10273831  0.57248487     0.11900
H1126       H  0.18083267  0.12466237  0.55609701     0.13100
H1127       H  0.13384203  0.11518761  0.54059933     0.12100
H1128       H  0.13274367  0.96992748  0.55387634     0.09200
H1129       H  0.08682738  0.96336347  0.53810516     0.12400
H1130       H  0.09213407  0.07631969  0.52958472     0.14300
C1131       C  0.09315676  0.97084907  0.46996334    -0.01200
C1132       C  0.11332566  0.93900748  0.47049472    -0.09200
C1133       C  0.14099644  0.93268569  0.46188351    -0.18000
C1134       C  0.14930824  0.95835499  0.45250301     0.04400
C1135       C  0.12871186  0.99076838  0.45219765     0.18500
C1136       C  0.10095829  0.99656907  0.46083776    -0.19500
C1137       C  0.13579632  0.01729092  0.44325096    -0.20700
C1138       C  0.16256137  0.01220110  0.43439972    -0.19300
C1139       C  0.18280284  0.98037970  0.43423253     0.19900
C1140       C  0.17688814  0.95306715  0.44333069     0.02000
C1141       C  0.19852506  0.92162758  0.44268042    -0.14000
C1142       C  0.22386384  0.91706829  0.43310432    -0.11700
C1143       C  0.22849354  0.94361933  0.42391277     0.01600
C1144       C  0.20844663  0.97554970  0.42478434    -0.23900
H1145       H  0.10756253  0.91899772  0.47759626     0.09600
H1146       H  0.15534481  0.90754488  0.46279289     0.13200
H1147       H  0.08535372  0.02130813  0.46053698     0.11900
H1148       H  0.12031733  0.04208566  0.44303542     0.13100
H1149       H  0.16711744  0.03314710  0.42750918     0.12100
H1150       H  0.19604697  0.89984281  0.44929514     0.09200
H1151       H  0.23908752  0.89218271  0.43271214     0.12400
H1152       H  0.21234512  0.99676600  0.41795683     0.14300
C1153       C  0.09037349  0.53641534  0.46986955    -0.01200
C1154       C  0.10385492  0.57106389  0.46777796    -0.09200
C1155       C  0.13064891  0.57677573  0.45883893    -0.18000
C1156       C  0.14453187  0.54770009  0.45173093     0.04400
C1157       C  0.12985807  0.51271839  0.45382545     0.18500
C1158       C  0.10323522  0.50742945  0.46288141    -0.19500
C1159       C  0.14189450  0.48311022  0.44691975    -0.20700
C1160       C  0.16867272  0.48727732  0.43801705    -0.19300
C1161       C  0.18419289  0.52110951  0.43587591     0.19900
C1162       C  0.17246286  0.55188264  0.44267717     0.02000
C1163       C  0.18954733  0.58528138  0.44019060    -0.14000
C1164       C  0.21693002  0.58790627  0.43128007    -0.11700
C1165       C  0.22787558  0.55753682  0.42450929     0.01600
C1166       C  0.21149639  0.52423140  0.42692752    -0.23900
H1167       H  0.09364054  0.59369033  0.47311089     0.09600
H1168       H  0.13985207  0.60415210  0.45770563     0.13200
H1169       H  0.09224689  0.48070259  0.46450901     0.11900
H1170       H  0.13059470  0.45649250  0.44844526     0.13100
H1171       H  0.17749528  0.46378725  0.43282464     0.12100
H1172       H  0.18243301  0.60983198  0.44497274     0.09200
H1173       H  0.22899402  0.61400951  0.42950018     0.12400
H1174       H  0.22012263  0.50045709  0.42185196     0.14300
C1175       C  0.08770449  0.47666026  0.53141417    -0.01200
C1176       C  0.11032683  0.44669369  0.53022443    -0.09200
C1177       C  0.13598113  0.43890596  0.53942296    -0.18000
C1178       C  0.13981231  0.46121137  0.55008723     0.04400
C1179       C  0.11690403  0.49189156  0.55106141     0.18500
C1180       C  0.09106057  0.49909169  0.54182546    -0.19500
C1181       C  0.11995539  0.51536318  0.56122356    -0.20700
C1182       C  0.14523011  0.50904891  0.57052871    -0.19300
C1183       C  0.16780096  0.47884747  0.56998925     0.19900
C1184       C  0.16545762  0.45437650  0.55980184     0.02000
C1185       C  0.18871403  0.42410503  0.55987763    -0.14000
C1186       C  0.21309097  0.41842906  0.56966465    -0.11700
C1187       C  0.21521581  0.44262563  0.57969685     0.01600
C1188       C  0.19254205  0.47292932  0.57969079    -0.23900
H1189       H  0.10803130  0.42924796  0.52214880     0.09600
H1190       H  0.15250348  0.41542298  0.53789008     0.13200
H1191       H  0.07358614  0.52243216  0.54264869     0.11900
H1192       H  0.10268777  0.53885010  0.56197275     0.13100
H1193       H  0.14691505  0.52779907  0.57827350     0.12100
H1194       H  0.18847195  0.40412033  0.55257454     0.09200
H1195       H  0.22999342  0.39465560  0.56940916     0.12400
H1196       H  0.19398140  0.49222454  0.58725992     0.14300
C1197       C  0.77597976  0.44236241  0.57881123    -0.01200
C1198       C  0.77135215  0.42579387  0.56716247    -0.09200
C1199       C  0.79475228  0.43330867  0.55728005    -0.18000
C1200       C  0.82377937  0.45770937  0.55876932     0.04400
C1201       C  0.82808118  0.47463983  0.57057290     0.18500
C1202       C  0.80433012  0.46698483  0.58035304    -0.19500
C1203       C  0.85623971  0.49902218  0.57263884    -0.20700
C1204       C  0.88061506  0.50684201  0.56322273    -0.19300
C1205       C  0.87741207  0.49041904  0.55153630     0.19900
C1206       C  0.84891278  0.46569788  0.54907292     0.02000
C1207       C  0.84722547  0.44975976  0.53707810    -0.14000
C1208       C  0.87323568  0.45747950  0.52806456    -0.11700
C1209       C  0.90117967  0.48165425  0.53065879     0.01600
C1210       C  0.90292459  0.49832188  0.54232707    -0.23900
H1211       H  0.74977360  0.40665959  0.56564449     0.09600
H1212       H  0.78949713  0.41941738  0.54863491     0.13200
H1213       H  0.80823160  0.48050768  0.58919732     0.11900
H1214       H  0.85956341  0.51200740  0.58163516     0.13100
H1215       H  0.90228910  0.52567750  0.56512504     0.12100
H1216       H  0.82648999  0.43092504  0.53441945     0.09200
H1217       H  0.87169594  0.44442636  0.51902864     0.12400
H1218       H  0.92461603  0.51715749  0.54425560     0.14300
C1219       C  0.90281467  0.53706594  0.46877441    -0.01200
C1220       C  0.88609599  0.57064791  0.46754387    -0.09200
C1221       C  0.85986175  0.57620577  0.45838351    -0.18000
C1222       C  0.84991454  0.54816541  0.45008108     0.04400
C1223       C  0.86750967  0.51424289  0.45136851     0.18500
C1224       C  0.89336576  0.50895688  0.46072902    -0.19500
C1225       C  0.85931414  0.48576494  0.44329485    -0.20700
C1226       C  0.83382891  0.49010689  0.43393039    -0.19300
C1227       C  0.81575398  0.52296029  0.43246862     0.19900
C1228       C  0.82334413  0.55247545  0.44053151     0.02000
C1229       C  0.80389086  0.58487416  0.43867816    -0.14000
C1230       C  0.77829829  0.58783517  0.42915907    -0.11700
C1231       C  0.77132269  0.55878999  0.42114987     0.01600
C1232       C  0.79007779  0.52638021  0.42293659    -0.23900
H1233       H  0.89336650  0.59259674  0.47373195     0.09600
H1234       H  0.84810538  0.60275233  0.45799076     0.13200
H1235       H  0.90657011  0.48299626  0.46172168     0.11900
H1236       H  0.87277251  0.45994134  0.44421425     0.13100
H1237       H  0.82813876  0.46753908  0.42780173     0.12100
H1238       H  0.80779947  0.60842400  0.44441353     0.09200
H1239       H  0.76437263  0.61326181  0.42797003     0.12400
H1240       H  0.78458641  0.50347911  0.41694756     0.14300
C1241       C  0.30275211  0.52802705  0.67177440    -0.01200
C1242       C  0.32474463  0.52716285  0.68242292    -0.09200
C1243       C  0.32000758  0.55204144  0.69210681    -0.18000
C1244       C  0.29283573  0.57877118  0.69149650     0.04400
C1245       C  0.27088155  0.57981153  0.68062566     0.18500
C1246       C  0.27608900  0.55482158  0.67095491    -0.19500
C1247       C  0.24350667  0.60557866  0.67947993    -0.20700
C1248       C  0.23715688  0.63026434  0.68897152    -0.19300
C1249       C  0.25811614  0.62991157  0.69982625     0.19900
C1250       C  0.28640992  0.60431188  0.70126679     0.02000
C1251       C  0.30686097  0.60544375  0.71243588    -0.14000
C1252       C  0.29941572  0.63084928  0.72173327    -0.11700
C1253       C  0.27146828  0.65574764  0.72020519     0.01600
C1254       C  0.25095865  0.65518831  0.70925155    -0.23900
H1255       H  0.34566771  0.50704481  0.68338688     0.09600
H1256       H  0.33788381  0.54944193  0.69998510     0.13200
H1257       H  0.25884204  0.55630474  0.66282702     0.11900
H1258       H  0.22670495  0.60651807  0.67120164     0.13100
H1259       H  0.21564176  0.64976547  0.68781678     0.12100
H1260       H  0.32883327  0.58719045  0.71425077     0.09200
H1261       H  0.31570608  0.63130454  0.73012959     0.12400
H1262       H  0.22946451  0.67473642  0.70807261     0.14300
C1263       C  0.17813441  0.54010891  0.83294264    -0.01200
C1264       C  0.21235799  0.55589499  0.83225019    -0.09200
C1265       C  0.22163156  0.57843987  0.82236499    -0.18000
C1266       C  0.19671124  0.58635829  0.81277503     0.04400
C1267       C  0.16196344  0.57021223  0.81345408     0.18500
C1268       C  0.15315373  0.54697855  0.82340713    -0.19500
C1269       C  0.13608824  0.57782734  0.80430489    -0.20700
C1270       C  0.14373431  0.60168017  0.79461721    -0.19300
C1271       C  0.17762794  0.61808547  0.79372581     0.19900
C1272       C  0.20486124  0.61016725  0.80267041     0.02000
C1273       C  0.23902524  0.62660448  0.80113735    -0.14000
C1274       C  0.24550186  0.65050838  0.79134082    -0.11700
C1275       C  0.21822016  0.65911676  0.78286195     0.01600
C1276       C  0.18443327  0.64264377  0.78399488    -0.23900
H1277       H  0.23243241  0.55061980  0.83935600     0.09600
H1278       H  0.24842331  0.58956574  0.82262739     0.13200
H1279       H  0.12653080  0.53500992  0.82389546     0.11900
H1280       H  0.10956154  0.56564618  0.80474219     0.13100
H1281       H  0.12294387  0.60741084  0.78778599     0.12100
H1282       H  0.26136972  0.62159994  0.80731603     0.09200
H1283       H  0.27181048  0.66296006  0.79048816     0.12400
H1284       H  0.16341888  0.64925233  0.77733438     0.14300
C1285       C  0.22156824  0.84744385  0.78094660    -0.01200
C1286       C  0.25249178  0.86347686  0.78586582    -0.09200
C1287       C  0.24975219  0.89112715  0.79461216    -0.18000
C1288       C  0.21567848  0.90358400  0.79868163     0.04400
C1289       C  0.18435419  0.88790782  0.79325357     0.18500
C1290       C  0.18756808  0.85979456  0.78454260    -0.19500
C1291       C  0.15008550  0.90039088  0.79655608    -0.20700
C1292       C  0.14616425  0.92797181  0.80524935    -0.19300
C1293       C  0.17638393  0.94317399  0.81105289     0.19900
C1294       C  0.21157394  0.93096347  0.80793320     0.02000
C1295       C  0.24109421  0.94614910  0.81441149    -0.14000
C1296       C  0.23588600  0.97231644  0.82356553    -0.11700
C1297       C  0.20125520  0.98455989  0.82653450     0.01600
C1298       C  0.17159546  0.97008909  0.82014814    -0.23900
H1299       H  0.27891583  0.85439311  0.78292815     0.09600
H1300       H  0.27478747  0.90230974  0.79791649     0.13200
H1301       H  0.16372080  0.84756230  0.78049239     0.11900
H1302       H  0.12614299  0.88876998  0.79237430     0.13100
H1303       H  0.11925810  0.93707911  0.80759892     0.12100
H1304       H  0.26854913  0.93797610  0.81280665     0.09200
H1305       H  0.25929114  0.98313432  0.82830234     0.12400
H1306       H  0.14462364  0.97896878  0.82250846     0.14300
C1307       C  0.27450844  0.84262659  0.71928876    -0.01200
C1308       C  0.30204225  0.86779651  0.72126370    -0.09200
C1309       C  0.30955669  0.89419079  0.71229056    -0.18000
C1310       C  0.28935085  0.89619515  0.70109106     0.04400
C1311       C  0.26112614  0.87063249  0.69932934     0.18500
C1312       C  0.25430005  0.84406643  0.70832094    -0.19500
C1313       C  0.23945235  0.87192460  0.68867483    -0.20700
C1314       C  0.24490183  0.89829155  0.67970280    -0.19300
C1315       C  0.27266943  0.92351939  0.68103281     0.19900
C1316       C  0.29568242  0.92272080  0.69163095     0.02000
C1317       C  0.32396388  0.94836513  0.69218941    -0.14000
C1318       C  0.32889817  0.97372709  0.68262246    -0.11700
C1319       C  0.30578113  0.97446571  0.67225763     0.01600
C1320       C  0.27756366  0.94937220  0.67167363    -0.23900
H1321       H  0.31764955  0.86703951  0.72981261     0.09600
H1322       H  0.33093642  0.91287438  0.71444066     0.13200
H1323       H  0.23273369  0.82470852  0.70691982     0.11900
H1324       H  0.21786265  0.85260302  0.68732614     0.13100
H1325       H  0.22741260  0.89875619  0.67159244     0.12100
H1326       H  0.34295227  0.94917985  0.69980487     0.09200
H1327       H  0.35112955  0.99252384  0.68332053     0.12400
H1328       H  0.25906528  0.94960040  0.66386725     0.14300
C1329       C  0.77587883  0.65735753  0.78070208    -0.01200
C1330       C  0.75229060  0.65735907  0.79086099    -0.09200
C1331       C  0.75602683  0.63214512  0.80044421    -0.18000
C1332       C  0.78366836  0.60582375  0.80013734     0.04400
C1333       C  0.80797149  0.60637551  0.78986950     0.18500
C1334       C  0.80383384  0.63198283  0.78026362    -0.19500
C1335       C  0.83619317  0.58136290  0.78926250    -0.20700
C1336       C  0.84084254  0.55572691  0.79864027    -0.19300
C1337       C  0.81716835  0.55418536  0.80881021     0.19900
C1338       C  0.78810529  0.57909248  0.80965088     0.02000
C1339       C  0.76453979  0.57597608  0.81994074    -0.14000
C1340       C  0.76993860  0.54982600  0.82909917    -0.11700
C1341       C  0.79900550  0.52571934  0.82845596     0.01600
C1342       C  0.82238708  0.52790191  0.81816934    -0.23900
H1343       H  0.73069957  0.67699095  0.79133610     0.09600
H1344       H  0.73685770  0.63410484  0.80795618     0.13200
H1345       H  0.82226553  0.63223005  0.77240881     0.11900
H1346       H  0.85487503  0.58167674  0.78148635     0.13100
H1347       H  0.86304523  0.53685580  0.79790177     0.12100
H1348       H  0.74144773  0.59318315  0.82118720     0.09200
H1349       H  0.75084003  0.54858699  0.83670770     0.12400
H1350       H  0.84495725  0.50948126  0.81748429     0.14300
C1351       C  0.70193698  0.51367032  0.67231776    -0.01200
C1352       C  0.73716405  0.52067821  0.67625913    -0.09200
C1353       C  0.74413784  0.54673884  0.68530399    -0.18000
C1354       C  0.71589904  0.56727204  0.69058666     0.04400
C1355       C  0.68005989  0.55991794  0.68657761     0.18500
C1356       C  0.67336991  0.53293577  0.67763915    -0.19500
C1357       C  0.65122212  0.57992142  0.69136490    -0.20700
C1358       C  0.65716962  0.60718953  0.70004608    -0.19300
C1359       C  0.69207345  0.61498325  0.70421335     0.19900
C1360       C  0.72198442  0.59504272  0.69958708     0.02000
C1361       C  0.75669912  0.60388492  0.70415531    -0.14000
C1362       C  0.76142051  0.63130538  0.71291216    -0.11700
C1363       C  0.73191290  0.65078803  0.71735439     0.01600
C1364       C  0.69731038  0.64266057  0.71299600    -0.23900
H1365       H  0.75958015  0.50586713  0.67230019     0.09600
H1366       H  0.77200008  0.55043989  0.68779945     0.13200
H1367       H  0.64605835  0.52781722  0.67449550     0.11900
H1368       H  0.62387588  0.57457727  0.68832007     0.13100
H1369       H  0.63428260  0.62228366  0.70353667     0.12100
H1370       H  0.78077784  0.59013095  0.70120153     0.09200
H1371       H  0.78830347  0.63746880  0.71624131     0.12400
H1372       H  0.67451579  0.65790568  0.71649749     0.14300
C1373       C  0.72972140  0.83909370  0.71534631    -0.01200
C1374       C  0.75776898  0.85102202  0.70770200    -0.09200
C1375       C  0.75162989  0.87731740  0.69861432    -0.18000
C1376       C  0.71698919  0.89268984  0.69696228     0.04400
C1377       C  0.68862625  0.88029107  0.70480042     0.18500
C1378       C  0.69521471  0.85366302  0.71386589    -0.19500
C1379       C  0.65387616  0.89452133  0.70354118    -0.20700
C1380       C  0.64649932  0.92071000  0.69458296    -0.19300
C1381       C  0.67370123  0.93339451  0.68666318     0.19900
C1382       C  0.70940300  0.91968184  0.68778521     0.02000
C1383       C  0.73590809  0.93343462  0.67960366    -0.14000
C1384       C  0.72713921  0.95876577  0.67048236    -0.11700
C1385       C  0.69186531  0.97170520  0.66922077     0.01600
C1386       C  0.66533400  0.95939298  0.67749938    -0.23900
H1387       H  0.78458602  0.83990272  0.70880394     0.09600
H1388       H  0.77458006  0.88499170  0.69306706     0.13200
H1389       H  0.67358578  0.84432890  0.71986143     0.11900
H1390       H  0.63218023  0.88521543  0.70950228     0.13100
H1391       H  0.61925364  0.93099732  0.69380533     0.12100
H1392       H  0.76365769  0.92499842  0.67991106     0.09200
H1393       H  0.74831157  0.96832615  0.66436203     0.12400
H1394       H  0.63794406  0.96920948  0.67656845     0.14300
C1395       C  0.77474097  0.84453311  0.77870207    -0.01200
C1396       C  0.74761246  0.84923909  0.78758574    -0.09200
C1397       C  0.75150611  0.87437620  0.79719468    -0.18000
C1398       C  0.78311309  0.89555206  0.79828560     0.04400
C1399       C  0.81025567  0.89123722  0.78901392     0.18500
C1400       C  0.80582958  0.86589884  0.77932494    -0.19500
C1401       C  0.84184660  0.91183720  0.78959085    -0.20700
C1402       C  0.84738128  0.93626820  0.79927887    -0.19300
C1403       C  0.82156758  0.94062863  0.80869342     0.19900
C1404       C  0.78899253  0.92041197  0.80831775     0.02000
C1405       C  0.76402813  0.92552702  0.81813032    -0.14000
C1406       C  0.77129603  0.94925425  0.82793644    -0.11700
C1407       C  0.80346373  0.96906824  0.82832936     0.01600
C1408       C  0.82836099  0.96479763  0.81857837    -0.23900
H1409       H  0.72336770  0.83298895  0.78714340     0.09600
H1410       H  0.72941398  0.87628459  0.80367512     0.13200
H1411       H  0.82679650  0.86224374  0.77239052     0.11900
H1412       H  0.86258265  0.90883141  0.78254435     0.13100
H1413       H  0.87225271  0.95159785  0.79948103     0.12100
H1414       H  0.73870810  0.91138193  0.81858547     0.09200
H1415       H  0.75127056  0.95223920  0.83520518     0.12400
H1416       H  0.85345755  0.97973873  0.81878761     0.14300
loop_ 
_geom_bond_atom_site_label_1 
_geom_bond_atom_site_label_2 
_geom_bond_distance 
_geom_bond_site_symmetry_2 
_ccdc_geom_bond_type 
N1            C6   1.354       .  A
N1            C5   1.355       .  A
N1           H33   1.032       .  S
N2            C9   1.353       .  A
N2           C10   1.352       .  A
N3            C8   1.354       .  A
N3            C7   1.354       .  A
N3           H34   1.032       .  S
N4           C11   1.353       .  A
N4           C12   1.352       .  A
C5           C13   1.387       .  A
C5           C21   1.418       .  A
C6           C22   1.419       .  A
C6           C14   1.387       .  A
C7           C15   1.388       .  A
C7           C24   1.418       .  A
C8           C23   1.417       .  A
C8           C16   1.387       .  A
C9           C21   1.415       .  A
C9           C17   1.385       .  A
C10          C24   1.417       .  A
C10          C18   1.387       .  A
C11          C19   1.387       .  A
C11          C22   1.416       .  A
C12          C20   1.386       .  A
C12          C23   1.415       .  A
C13          C14   1.375       .  A
C13          H25   1.082       .  S
C14          H26   1.082       .  S
C15          C16   1.375       .  A
C15          H27   1.082       .  S
C16          H28   1.083       .  S
C17          C18   1.372       .  A
C17          H29   1.082       .  S
C18          H30   1.082       .  S
C19          C20   1.371       .  A
C19          H31   1.082       .  S
C20          H32   1.082       .  S
C21        C1395   1.488       .  S
C22        C1329   1.488       .  S
C23        C1363   1.483       .  S
C24        C1373   1.483       .  S
N35          C40   1.353       .  A
N35          C39   1.353       .  A
N35          H67   1.036       .  S
N36          C43   1.353       .  A
N36          C44   1.352       .  A
N37          C42   1.354       .  A
N37          C41   1.352       .  A
N37          H68   1.038       .  S
N38          C45   1.349       .  A
N38          C46   1.349       .  A
C39          C47   1.389       .  A
C39          C55   1.418       .  A
C40          C56   1.414       .  A
C40          C48   1.386       .  A
C41          C49   1.387       .  A
C41          C58   1.415       .  A
C42          C57   1.414       .  A
C42          C50   1.386       .  A
C43          C55   1.416       .  A
C43          C51   1.387       .  A
C44          C58   1.415       .  A
C44          C52   1.386       .  A
C45          C53   1.386       .  A
C45          C56   1.408       .  A
C46          C54   1.386       .  A
C46          C57   1.409       .  A
C47          C48   1.373       .  A
C47          H59   1.082       .  S
C48          H60   1.082       .  S
C49          C50   1.374       .  A
C49          H61   1.082       .  S
C50          H62   1.082       .  S
C51          C52   1.373       .  A
C51          H63   1.082       .  S
C52          H64   1.082       .  S
C53          C54   1.370       .  A
C53          H65   1.082       .  S
C54          H66   1.082       .  S
C55        C1275   1.484       .  S
C56        C1285   1.477       .  S
C57        C1307   1.482       .  S
C58        C1253   1.485       .  S
N69          C74   1.351       .  A
N69          C73   1.354   1_655  A
N69         H101   1.037       .  S
N70          C77   1.352       .  A
N70          C78   1.350       .  A
N71          C76   1.354       .  A
N71          C75   1.351   1_655  A
N71         H102   1.037       .  S
N72          C79   1.349       .  A
N72          C80   1.351       .  A
C73          C81   1.386       .  A
C73          C89   1.414       .  A
C74          C90   1.416       .  A
C74          C82   1.388       .  A
C75          C83   1.387       .  A
C75          C92   1.413       .  A
C76          C91   1.414       .  A
C76          C84   1.387       .  A
C77          C89   1.412       .  A
C77          C85   1.386       .  A
C78          C92   1.411       .  A
C78          C86   1.387       .  A
C79          C87   1.387       .  A
C79          C90   1.412       .  A
C80          C88   1.386       .  A
C80          C91   1.410       .  A
C81          C82   1.374   1_455  A
C81          H93   1.082       .  S
C82          H94   1.082       .  S
C83          C84   1.372   1_455  A
C83          H95   1.082       .  S
C84          H96   1.082       .  S
C85          C86   1.372       .  A
C85          H97   1.082       .  S
C86          H98   1.082       .  S
C87          C88   1.370       .  A
C87          H99   1.082       .  S
C88         H100   1.082       .  S
C89        C1175   1.485       .  S
C90        C1209   1.480       .  S
C91        C1219   1.481       .  S
C92        C1153   1.475       .  S
N103        C107   1.338       .  A
N103        N104   1.320       .  A
N103       Cu111   2.051       .  S
N104        C105   1.347       .  A
N104       Cu110   2.077       .  S
C105        C106   1.391       .  A
C105        H108   1.081       .  S
C106        C107   1.384       .  A
C106       C1197   1.483       .  S
C107        H109   1.080       .  S
Cu110       N113   2.080       .  S
Cu111       N121   2.051       .  S
Cu112       N114   2.075       .  S
Cu112       N120   2.074       .  S
N113        C117   1.347       .  A
N113        N114   1.324       .  A
N114        C115   1.344       .  A
C115        C116   1.381       .  A
C115        H118   1.082       .  S
C116        C117   1.383       .  A
C116        C696   1.468       .  S
C117        H119   1.082       .  S
N120        C124   1.347       .  A
N120        N121   1.320       .  A
N121        C122   1.340       .  A
C122        C123   1.381       .  A
C122        H125   1.082       .  S
C123        C124   1.387       .  A
C123       C1351   1.473       .  S
C124        H126   1.082       .  S
N127        C131   1.340       .  A
N127        N128   1.319       .  A
N127       Cu135   2.059       .  S
N128        C129   1.348       .  A
N128       Cu134   2.084       .  S
C129        C130   1.393       .  A
C129        H132   1.081       .  S
C130        C131   1.387       .  A
C130       C1241   1.490       .  S
C131        H133   1.080       .  S
Cu134       N137   2.086       .  S
Cu135       N145   2.059       .  S
Cu136       N138   2.084       .  S
Cu136       N144   2.083       .  S
N137        C141   1.346       .  A
N137        N138   1.325       .  A
N138        C139   1.346       .  A
C139        C140   1.382       .  A
C139        H142   1.082       .  S
C140        C141   1.383       .  A
C140        C698   1.470       .  S
C141        H143   1.082       .  S
N144        C148   1.348       .  A
N144        N145   1.319       .  A
N145        C146   1.341       .  A
C146        C147   1.386       .  A
C146        H149   1.081       .  S
C147        C148   1.392       .  A
C147       C1187   1.488       .  S
C148        H150   1.081       .  S
N151        C156   1.355       .  A
N151        C155   1.353   1_655  A
N151        H183   1.035   1_565  S
N152        C159   1.352       .  A
N152        C160   1.353   1_565  A
N153        C158   1.354       .  A
N153        C157   1.356   1_655  A
N153        H184   1.034       .  S
N154        C161   1.353       .  A
N154        C162   1.352       .  A
C155        C163   1.387       .  A
C155        C171   1.418       .  A
C156        C172   1.419       .  A
C156        C164   1.387       .  A
C157        C165   1.385       .  A
C157        C174   1.419       .  A
C158        C173   1.423       .  A
C158        C166   1.390       .  A
C159        C171   1.416       .  A
C159        C167   1.387       .  A
C160        C174   1.415       .  A
C160        C168   1.386       .  A
C161        C169   1.386       .  A
C161        C172   1.415   1_545  A
C162        C170   1.388       .  A
C162        C173   1.418       .  A
C163        C164   1.376   1_455  A
C163        H175   1.082       .  S
C164        H176   1.082       .  S
C165        C166   1.375   1_455  A
C165        H177   1.082       .  S
C166        H178   1.082       .  S
C167        C168   1.371   1_565  A
C167        H179   1.082       .  S
C168        H180   1.082       .  S
C169        C170   1.371       .  A
C169        H181   1.082       .  S
C170        H182   1.082       .  S
C171       C1131   1.484       .  S
C172       C1065   1.488       .  S
C173       C1087   1.486       .  S
C174       C1121   1.490       .  S
N185        C189   1.338   1_545  A
N185        N186   1.319       .  A
N185       Cu193   2.059       .  S
N186        C187   1.349       .  A
N186       Cu192   2.078       .  S
C187        C188   1.392       .  A
C187        H190   1.081       .  S
C188        C189   1.386   1_545  A
C188       C1319   1.487   1_545  S
C189        H191   1.080       .  S
Cu192       N195   2.080       .  S
Cu193       N203   2.060       .  S
Cu194       N196   2.095       .  S
Cu194       N202   2.094       .  S
N195        C199   1.345       .  A
N195        N196   1.326       .  A
N196        C197   1.348       .  A
C197        C198   1.384       .  A
C197        H200   1.082       .  S
C198        C199   1.381       .  A
C198        C695   1.471       .  S
C199        H201   1.082       .  S
N202        C206   1.350       .  A
N202        N203   1.320       .  A
N203        C204   1.343       .  A
C204        C205   1.384       .  A
C204        H207   1.082       .  S
C205        C206   1.392       .  A
C205       C1109   1.487       .  S
C206        H208   1.082       .  S
N209        C213   1.342       .  A
N209        N210   1.319       .  A
N209       Cu217   2.060       .  S
N210        C211   1.347       .  A
N210       Cu216   2.076       .  S
C211        C212   1.390       .  A
C211        H214   1.081       .  S
C212        C213   1.386       .  A
C212       C1099   1.484       .  S
C213        H215   1.081       .  S
Cu216       N219   2.077       .  S
Cu217       N227   2.059       .  S
Cu218       N220   2.093       .  S
Cu218       N226   2.091       .  S
N219        C223   1.346       .  A
N219        N220   1.326       .  A
N220        C221   1.347       .  A
C221        C222   1.384       .  A
C221        H224   1.082       .  S
C222        C223   1.381       .  A
C222        C697   1.470       .  S
C223        H225   1.082       .  S
N226        C230   1.351       .  A
N226        N227   1.321       .  A
N227        C228   1.339   1_545  A
C228        C229   1.381       .  A
C228        H231   1.082       .  S
C229        C230   1.391   1_565  A
C229       C1385   1.481       .  S
C230        H232   1.082       .  S
N233        C238   1.351       .  A
N233        C237   1.351       .  A
N233        H265   1.037       .  S
N234        C241   1.351       .  A
N234        C242   1.351   1_554  A
N235        C240   1.355       .  A
N235        C239   1.355       .  A
N235        H266   1.037       .  S
N236        C243   1.351       .  A
N236        C244   1.350   1_554  A
C237        C245   1.388       .  A
C237        C253   1.413       .  A
C238        C254   1.412       .  A
C238        C246   1.387       .  A
C239        C247   1.387       .  A
C239        C256   1.418       .  A
C240        C255   1.417       .  A
C240        C248   1.387       .  A
C241        C253   1.413       .  A
C241        C249   1.386       .  A
C242        C256   1.412       .  A
C242        C250   1.386       .  A
C243        C251   1.386       .  A
C243        C254   1.412       .  A
C244        C252   1.386       .  A
C244        C255   1.412       .  A
C245        C246   1.375       .  A
C245        H257   1.082       .  S
C246        H258   1.083       .  S
C247        C248   1.376       .  A
C247        H259   1.082       .  S
C248        H260   1.082       .  S
C249        C250   1.372   1_554  A
C249        H261   1.082       .  S
C250        H262   1.082       .  S
C251        C252   1.372   1_554  A
C251        H263   1.082       .  S
C252        H264   1.082       .  S
C253        C999   1.479       .  S
C254        C989   1.479       .  S
C255       C1021   1.483       .  S
C256       C1055   1.484       .  S
N267        C271   1.340       .  A
N267        N268   1.321       .  A
N267       Cu275   2.066       .  S
N268        C269   1.350       .  A
N268       Cu274   2.090       .  S
C269        C270   1.393       .  A
C269        H272   1.081       .  S
C270        C271   1.386       .  A
C270       C1341   1.490       .  S
C271        H273   1.081       .  S
Cu274       N277   2.091       .  S
Cu275       N285   2.066       .  S
Cu276       N278   2.083       .  S
Cu276       N284   2.081       .  S
N277        C281   1.347       .  A
N277        N278   1.325       .  A
N278        C279   1.347       .  A
C279        C280   1.382       .  A
C279        H282   1.082       .  S
C280        C281   1.385       .  A
C280        C709   1.473       .  S
C281        H283   1.082       .  S
N284        C288   1.348       .  A
N284        N285   1.320       .  A
N285        C286   1.343       .  A
C286        C287   1.385       .  A
C286        H289   1.082       .  S
C287        C288   1.389       .  A
C287       C1043   1.482       .  S
C288        H290   1.082       .  S
N291        C295   1.340       .  A
N291        N292   1.320       .  A
N291       Cu299   2.059       .  S
N292        C293   1.348       .  A
N292       Cu298   2.076       .  S
C293        C294   1.388       .  A
C293        H296   1.082       .  S
C294        C295   1.383       .  A
C294       C1263   1.480       .  S
C295        H297   1.082       .  S
Cu298       N301   2.078       .  S
Cu299       N309   2.059       .  S
Cu300       N302   2.094       .  S
Cu300       N308   2.092       .  S
N301        C305   1.346       .  A
N301        N302   1.325       .  A
N302        C303   1.347       .  A
C303        C304   1.385       .  A
C303        H306   1.082       .  S
C304        C305   1.381       .  A
C304        C711   1.471       .  S
C305        H307   1.082       .  S
N308        C312   1.350       .  A
N308        N309   1.321       .  A
N309        C310   1.341       .  A
C310        C311   1.383       .  A
C310        H313   1.082       .  S
C311        C312   1.391       .  A
C311       C1033   1.483       .  S
C312        H314   1.082       .  S
N315        C320   1.351       .  A
N315        C319   1.355       .  A
N315        H347   1.038       .  S
N316        C323   1.352       .  A
N316        C324   1.349       .  A
N317        C322   1.354       .  A
N317        C321   1.352       .  A
N317        H348   1.038       .  S
N318        C325   1.350       .  A
N318        C326   1.351       .  A
C319        C327   1.386       .  A
C319        C335   1.415       .  A
C320        C336   1.415       .  A
C320        C328   1.388       .  A
C321        C329   1.388       .  A
C321        C338   1.415       .  A
C322        C337   1.415       .  A
C322        C330   1.386       .  A
C323        C335   1.411       .  A
C323        C331   1.385       .  A
C324        C338   1.412       .  A
C324        C332   1.388       .  A
C325        C333   1.387       .  A
C325        C336   1.412       .  A
C326        C334   1.386       .  A
C326        C337   1.410       .  A
C327        C328   1.375       .  A
C327        H339   1.082       .  S
C328        H340   1.082       .  S
C329        C330   1.377       .  A
C329        H341   1.082       .  S
C330        H342   1.082       .  S
C331        C332   1.372       .  A
C331        H343   1.082       .  S
C332        H344   1.082       .  S
C333        C334   1.372       .  A
C333        H345   1.082       .  S
C334        H346   1.082       .  S
C335        C967   1.490       .  S
C336        C945   1.480       .  S
C337        C889   1.484       .  S
C338        C911   1.477       .  S
N349        C354   1.354       .  A
N349        C353   1.353       .  A
N349        H381   1.038       .  S
N350        C357   1.352   1_554  A
N350        C358   1.353   1_545  A
N351        C356   1.354       .  A
N351        C355   1.356       .  A
N351        H382   1.036       .  S
N352        C359   1.353       .  A
N352        C360   1.351   1_546  A
C353        C361   1.387       .  A
C353        C369   1.415       .  A
C354        C370   1.417       .  A
C354        C362   1.387       .  A
C355        C363   1.388       .  A
C355        C372   1.422       .  A
C356        C371   1.420       .  A
C356        C364   1.387       .  A
C357        C369   1.414       .  A
C357        C365   1.385       .  A
C358        C372   1.416       .  A
C358        C366   1.387       .  A
C359        C367   1.386       .  A
C359        C370   1.415       .  A
C360        C368   1.387       .  A
C360        C371   1.414       .  A
C361        C362   1.375       .  A
C361        H373   1.082       .  S
C362        H374   1.082       .  S
C363        C364   1.375       .  A
C363        H375   1.081       .  S
C364        H376   1.082       .  S
C365        C366   1.371   1_546  A
C365        H377   1.082       .  S
C366        H378   1.081       .  S
C367        C368   1.372   1_546  A
C367        H379   1.082       .  S
C368        H380   1.082       .  S
C369        C857   1.485       .  S
C370        C867   1.492       .  S
C371        C823   1.484       .  S
C372        C813   1.492       .  S
N383        C387   1.341       .  A
N383        N384   1.320       .  A
N383       Cu391   2.067       .  S
N384        C385   1.347       .  A
N384       Cu390   2.076       .  S
C385        C386   1.391       .  A
C385        H388   1.081       .  S
C386        C387   1.388       .  A
C386        C879   1.489       .  S
C387        H389   1.080       .  S
Cu390       N393   2.077       .  S
Cu391       N401   2.065       .  S
Cu392       N394   2.077       .  S
Cu392       N400   2.075       .  S
N393        C397   1.345       .  A
N393        N394   1.324       .  A
N394        C395   1.345       .  A
C395        C396   1.382       .  A
C395        H398   1.082       .  S
C396        C397   1.382       .  A
C396        C710   1.468       .  S
C397        H399   1.082       .  S
N400        C404   1.347       .  A
N400        N401   1.321       .  A
N401        C402   1.342       .  A
C402        C403   1.384       .  A
C402        H405   1.082       .  S
C403        C404   1.387       .  A
C403       C1297   1.480   1_545  S
C404        H406   1.082       .  S
N407        C411   1.341       .  A
N407        N408   1.319       .  A
N407       Cu415   2.068       .  S
N408        C409   1.348       .  A
N408       Cu414   2.078       .  S
C409        C410   1.392       .  A
C409        H412   1.081       .  S
C410        C411   1.389       .  A
C410        C845   1.491       .  S
C411        H413   1.080       .  S
Cu414       N417   2.079       .  S
Cu415       N425   2.069       .  S
Cu416       N418   2.091       .  S
Cu416       N424   2.090       .  S
N417        C421   1.344       .  A
N417        N418   1.325       .  A
N418        C419   1.349       .  A
C419        C420   1.385       .  A
C419        H422   1.082       .  S
C420        C421   1.381       .  A
C420        C712   1.472       .  S
C421        H423   1.082       .  S
N424        C428   1.349       .  A
N424        N425   1.321       .  A
N425        C426   1.343   1_545  A
C426        C427   1.386       .  A
C426        H429   1.081       .  S
C427        C428   1.391   1_565  A
C427       C1407   1.488       .  S
C428        H430   1.081       .  S
N431        C436   1.353       .  A
N431        C435   1.355       .  A
N431        H463   1.034       .  S
N432        C439   1.353       .  A
N432        C440   1.351       .  A
N433        C438   1.354       .  A
N433        C437   1.352       .  A
N433        H464   1.037       .  S
N434        C441   1.350       .  A
N434        C442   1.351       .  A
C435        C443   1.388       .  A
C435        C451   1.420       .  A
C436        C452   1.417       .  A
C436        C444   1.387       .  A
C437        C445   1.388       .  A
C437        C454   1.415       .  A
C438        C453   1.413       .  A
C438        C446   1.386       .  A
C439        C451   1.417       .  A
C439        C447   1.387       .  A
C440        C454   1.414       .  A
C440        C448   1.386       .  A
C441        C449   1.388       .  A
C441        C452   1.413       .  A
C442        C450   1.385       .  A
C442        C453   1.409       .  A
C443        C444   1.373       .  A
C443        H455   1.082       .  S
C444        H456   1.082       .  S
C445        C446   1.374       .  A
C445        H457   1.082       .  S
C446        H458   1.083       .  S
C447        C448   1.373       .  A
C447        H459   1.082       .  S
C448        H460   1.082       .  S
C449        C450   1.371       .  A
C449        H461   1.082       .  S
C450        H462   1.082       .  S
C451        C735   1.490       .  S
C452        C725   1.479       .  S
C453        C769   1.481       .  S
C454        C779   1.481       .  S
N465        C469   1.340       .  A
N465        N466   1.320       .  A
N465       Cu473   2.055       .  S
N466        C467   1.349       .  A
N466       Cu472   2.081       .  S
C467        C468   1.390       .  A
C467        H470   1.082       .  S
C468        C469   1.382       .  A
C468        C835   1.481       .  S
C469        H471   1.082       .  S
Cu472       N475   2.083       .  S
Cu473       N483   2.055       .  S
Cu474       N476   2.095       .  S
Cu474       N482   2.094       .  S
N475        C479   1.347       .  A
N475        N476   1.326       .  A
N476        C477   1.347       .  A
C477        C478   1.384       .  A
C477        H480   1.082       .  S
C478        C479   1.382       .  A
C478        C669   1.472       .  S
C479        H481   1.082       .  S
N482        C486   1.351       .  A
N482        N483   1.320       .  A
N483        C484   1.340   1_565  A
C484        C485   1.382       .  A
C484        H487   1.082       .  S
C485        C486   1.392   1_545  A
C485        C747   1.484       .  S
C486        H488   1.082       .  S
N489        C493   1.342       .  A
N489        N490   1.321       .  A
N489       Cu497   2.067       .  S
N490        C491   1.348       .  A
N490       Cu496   2.081       .  S
C491        C492   1.387       .  A
C491        H494   1.082       .  S
C492        C493   1.383       .  A
C492        C923   1.479   1_565  S
C493        H495   1.082   1_565  S
Cu496       N499   2.083       .  S
Cu497       N507   2.068       .  S
Cu498       N500   2.091       .  S
Cu498       N506   2.091       .  S
N499        C503   1.347       .  A
N499        N500   1.324       .  A
N500        C501   1.348       .  A
C501        C502   1.385       .  A
C501        H504   1.082       .  S
C502        C503   1.383       .  A
C502        C667   1.475       .  S
C503        H505   1.082       .  S
N506        C510   1.349       .  A
N506        N507   1.321       .  A
N507        C508   1.344       .  A
C508        C509   1.385       .  A
C508        H511   1.082       .  S
C509        C510   1.390       .  A
C509        C801   1.486       .  S
C510        H512   1.082       .  S
N513        C517   1.342       .  A
N513        N514   1.320       .  A
N513       Cu521   2.055       .  S
N514        C515   1.348       .  A
N514       Cu520   2.088       .  S
C515        C516   1.390       .  A
C515        H518   1.082       .  S
C516        C517   1.383       .  A
C516        C901   1.482       .  S
C517        H519   1.082       .  S
Cu520       N523   2.090       .  S
Cu521       N531   2.055       .  S
Cu522       N524   2.079       .  S
Cu522       N530   2.077       .  S
N523        C527   1.347       .  A
N523        N524   1.325       .  A
N524        C525   1.346       .  A
C525        C526   1.382       .  A
C525        H528   1.082       .  S
C526        C527   1.384       .  A
C526        C670   1.472       .  S
C527        H529   1.082       .  S
N530        C534   1.348       .  A
N530        N531   1.320       .  A
N531        C532   1.338       .  A
C532        C533   1.383       .  A
C532        H535   1.081       .  S
C533        C534   1.389       .  A
C533       C1011   1.480       .  S
C534        H536   1.082       .  S
N537        C541   1.340       .  A
N537        N538   1.320       .  A
N537       Cu545   2.049       .  S
N538        C539   1.347       .  A
N538       Cu544   2.080       .  S
C539        C540   1.390       .  A
C539        H542   1.082       .  S
C540        C541   1.382       .  A
C540        C713   1.478       .  S
C541        H543   1.082       .  S
Cu544       N547   2.082       .  S
Cu545       N555   2.050       .  S
Cu546       N548   2.088       .  S
Cu546       N554   2.085       .  S
N547        C551   1.346       .  A
N547        N548   1.325       .  A
N548        C549   1.347       .  A
C549        C550   1.384       .  A
C549        H552   1.082       .  S
C550        C551   1.382       .  A
C550        C668   1.473       .  S
C551        H553   1.082       .  S
N554        C558   1.348       .  A
N554        N555   1.320       .  A
N555        C556   1.340       .  A
C556        C557   1.384       .  A
C556        H559   1.081       .  S
C557        C558   1.391       .  A
C557        C977   1.484       .  S
C558        H560   1.081       .  S
N561        C565   1.341       .  A
N561        N562   1.321       .  A
N561       Cu569   2.064       .  S
N562        C563   1.350       .  A
N562       Cu568   2.088       .  S
C563        C564   1.391       .  A
C563        H566   1.082       .  S
C564        C565   1.384       .  A
C564        C791   1.485   1_565  S
C565        H567   1.082   1_565  S
Cu568       N571   2.090       .  S
Cu569       N579   2.064       .  S
Cu570       N572   2.080       .  S
Cu570       N578   2.078       .  S
N571        C575   1.347       .  A
N571        N572   1.325       .  A
N572        C573   1.345       .  A
C573        C574   1.381       .  A
C573        H576   1.082       .  S
C574        C575   1.384       .  A
C574        C683   1.470       .  S
C575        H577   1.082       .  S
N578        C582   1.349       .  A
N578        N579   1.319       .  A
N579        C580   1.340       .  A
C580        C581   1.386       .  A
C580        H583   1.081       .  S
C581        C582   1.390       .  A
C581       C1143   1.486       .  S
C582        H584   1.082       .  S
N585        C589   1.341       .  A
N585        N586   1.320       .  A
N585       Cu593   2.062       .  S
N586        C587   1.349       .  A
N586       Cu592   2.081       .  S
C587        C588   1.391       .  A
C587        H590   1.082       .  S
C588        C589   1.384       .  A
C588       C1077   1.486       .  S
C589        H591   1.081       .  S
Cu592       N595   2.082       .  S
Cu593       N603   2.062       .  S
Cu594       N596   2.089       .  S
Cu594       N602   2.088       .  S
N595        C599   1.345       .  A
N595        N596   1.326       .  A
N596        C597   1.347       .  A
C597        C598   1.383       .  A
C597        H600   1.082       .  S
C598        C599   1.381       .  A
C598        C681   1.469       .  S
C599        H601   1.082       .  S
N602        C606   1.349       .  A
N602        N603   1.319       .  A
N603        C604   1.341       .  A
C604        C605   1.387       .  A
C604        H607   1.080   1_565  S
C605        C606   1.394       .  A
C605        C955   1.493   1_565  S
C606        H608   1.081       .  S
N609        C613   1.338       .  A
N609        N610   1.320       .  A
N609       Cu617   2.056       .  S
N610        C611   1.349       .  A
N610       Cu616   2.086       .  S
C611        C612   1.392       .  A
C611        H614   1.081       .  S
C612        C613   1.385       .  A
C612        C933   1.486       .  S
C613        H615   1.080       .  S
Cu616       N619   2.087       .  S
Cu617       N627   2.056       .  S
Cu618       N620   2.074       .  S
Cu618       N626   2.072       .  S
N619        C623   1.347       .  A
N619        N620   1.325       .  A
N620        C621   1.345       .  A
C621        C622   1.381       .  A
C621        H624   1.082       .  S
C622        C623   1.384       .  A
C622        C684   1.470       .  S
C623        H625   1.082       .  S
N626        C630   1.346       .  A
N626        N627   1.319       .  A
N627        C628   1.341       .  A
C628        C629   1.385       .  A
C628        H631   1.081       .  S
C629        C630   1.389       .  A
C629       C1231   1.481       .  S
C630        H632   1.081       .  S
N633        C637   1.340       .  A
N633        N634   1.320       .  A
N633       Cu641   2.056       .  S
N634        C635   1.347       .  A
N634       Cu640   2.076       .  S
C635        C636   1.389       .  A
C635        H638   1.082       .  S
C636        C637   1.384       .  A
C636        C757   1.480       .  S
C637        H639   1.082       .  S
Cu640       N643   2.077       .  S
Cu641       N651   2.054       .  S
Cu642       N644   2.078       .  S
Cu642       N650   2.075       .  S
N643        C647   1.345       .  A
N643        N644   1.325       .  A
N644        C645   1.344       .  A
C645        C646   1.381       .  A
C645        H648   1.082       .  S
C646        C647   1.381       .  A
C646        C682   1.467       .  S
C647        H649   1.082       .  S
N650        C654   1.347       .  A
N650        N651   1.320       .  A
N651        C652   1.340       .  A
C652        C653   1.382       .  A
C652        H655   1.082       .  S
C653        C654   1.388       .  A
C653       C1165   1.477       .  S
C654        H656   1.082       .  S
O657       Cu665   2.017   1_655  S
O657        C667   1.278       .  A
O658       Cu665   2.015       .  S
O658        C668   1.278       .  A
O659       Cu665   2.012       .  S
O659        C669   1.277       .  A
O660       Cu665   2.013   1_655  S
O660        C670   1.277       .  A
O661       Cu666   2.017   1_655  S
O661        C670   1.279       .  A
O662       Cu666   2.018       .  S
O662        C669   1.279       .  A
O663       Cu666   2.018       .  S
O663        C668   1.278       .  A
O664       Cu666   2.020   1_655  S
O664        C667   1.278       .  A
Cu665      Cu666   2.375       .  S
O671       Cu679   2.015       .  S
O671        C681   1.278       .  A
O672       Cu679   2.014       .  S
O672        C682   1.278       .  A
O673       Cu679   2.012       .  S
O673        C683   1.277       .  A
O674       Cu679   2.013       .  S
O674        C684   1.277       .  A
O675       Cu680   2.013       .  S
O675        C684   1.278       .  A
O676       Cu680   2.012       .  S
O676        C683   1.278       .  A
O677       Cu680   2.004       .  S
O677        C682   1.277       .  A
O678       Cu680   2.005       .  S
O678        C681   1.277       .  A
Cu679      Cu680   2.376       .  S
O685       Cu693   2.015       .  S
O685        C695   1.278       .  A
O686       Cu693   2.013       .  S
O686        C696   1.277       .  A
O687       Cu693   2.019       .  S
O687        C697   1.279       .  A
O688       Cu693   2.017       .  S
O688        C698   1.279       .  A
O689       Cu694   2.008       .  S
O689        C698   1.277       .  A
O690       Cu694   2.007       .  S
O690        C697   1.277       .  A
O691       Cu694   2.010       .  S
O691        C696   1.278       .  A
O692       Cu694   2.011       .  S
O692        C695   1.278       .  A
Cu693      Cu694   2.376       .  S
O699       Cu707   2.022       .  S
O699        C709   1.280       .  A
O700       Cu707   2.015   1_455  S
O700        C710   1.278       .  A
O701       Cu707   2.007   1_455  S
O701        C711   1.276       .  A
O702       Cu707   2.006       .  S
O702        C712   1.277       .  A
O703       Cu708   2.023       .  S
O703        C712   1.279       .  A
O704       Cu708   2.024   1_455  S
O704        C711   1.280       .  A
O705       Cu708   2.006   1_455  S
O705        C710   1.277       .  A
O706       Cu708   2.009       .  S
O706        C709   1.277       .  A
Cu707      Cu708   2.375       .  S
C713        C714   1.398       .  A
C713        C718   1.402       .  A
C714        C715   1.395       .  A
C714        H727   1.082       .  S
C715        C716   1.415       .  A
C715        H728   1.077       .  S
C716        C722   1.427       .  A
C716        C717   1.421       .  A
C717        C719   1.400       .  A
C717        C718   1.402       .  A
C718        H729   1.084       .  S
C719        C720   1.389       .  A
C719        H730   1.084       .  S
C720        C721   1.399       .  A
C720        H731   1.084       .  S
C721        C722   1.423       .  A
C721        C726   1.402       .  A
C722        C723   1.415       .  A
C723        C724   1.393       .  A
C723        H732   1.077       .  S
C724        C725   1.396       .  A
C724        H733   1.084       .  S
C725        C726   1.397       .  A
C726        H734   1.085       .  S
C735        C736   1.398       .  A
C735        C740   1.401       .  A
C736        C737   1.396       .  A
C736        H749   1.084       .  S
C737        C738   1.417       .  A
C737        H750   1.077       .  S
C738        C744   1.431       .  A
C738        C739   1.423       .  A
C739        C741   1.400       .  A
C739        C740   1.407       .  A
C740        H751   1.084       .  S
C741        C742   1.392       .  A
C741        H752   1.084       .  S
C742        C743   1.400       .  A
C742        H753   1.084       .  S
C743        C744   1.424       .  A
C743        C748   1.410       .  A
C744        C745   1.413       .  A
C745        C746   1.394       .  A
C745        H754   1.077       .  S
C746        C747   1.401       .  A
C746        H755   1.083       .  S
C747        C748   1.402       .  A
C748        H756   1.084       .  S
C757        C758   1.400       .  A
C757        C762   1.402       .  A
C758        C759   1.393       .  A
C758        H771   1.082       .  S
C759        C760   1.413       .  A
C759        H772   1.077       .  S
C760        C766   1.428       .  A
C760        C761   1.423       .  A
C761        C763   1.400       .  A
C761        C762   1.406       .  A
C762        H773   1.084       .  S
C763        C764   1.391       .  A
C763        H774   1.084       .  S
C764        C765   1.400       .  A
C764        H775   1.084       .  S
C765        C766   1.423       .  A
C765        C770   1.406       .  A
C766        C767   1.416       .  A
C767        C768   1.393       .  A
C767        H776   1.076       .  S
C768        C769   1.395       .  A
C768        H777   1.084       .  S
C769        C770   1.399       .  A
C770        H778   1.084       .  S
C779        C780   1.396       .  A
C779        C784   1.397       .  A
C780        C781   1.396       .  A
C780        H793   1.084       .  S
C781        C782   1.417       .  A
C781        H794   1.077       .  S
C782        C788   1.430       .  A
C782        C783   1.423       .  A
C783        C785   1.399       .  A
C783        C784   1.404       .  A
C784        H795   1.085       .  S
C785        C786   1.390       .  A
C785        H796   1.084       .  S
C786        C787   1.400       .  A
C786        H797   1.084       .  S
C787        C788   1.424       .  A
C787        C792   1.408       .  A
C788        C789   1.413       .  A
C789        C790   1.394       .  A
C789        H798   1.077       .  S
C790        C791   1.402       .  A
C790        H799   1.082       .  S
C791        C792   1.402       .  A
C792        H800   1.084       .  S
C801        C802   1.401       .  A
C801        C806   1.403       .  A
C802        C803   1.401       .  A
C802        H815   1.083       .  S
C803        C804   1.416       .  A
C803        H816   1.078       .  S
C804        C810   1.433       .  A
C804        C805   1.422       .  A
C805        C807   1.399   1_565  A
C805        C806   1.405       .  A
C806        H817   1.084       .  S
C807        C808   1.389       .  A
C807        H818   1.084       .  S
C808        C809   1.399   1_545  A
C808        H819   1.084       .  S
C809        C810   1.423       .  A
C809        C814   1.405   1_565  A
C810        C811   1.416       .  A
C811        C812   1.400       .  A
C811        H820   1.078       .  S
C812        C813   1.400       .  A
C812        H821   1.083       .  S
C813        C814   1.399   1_565  A
C814        H822   1.085       .  S
C823        C824   1.397   1_565  A
C823        C828   1.399       .  A
C824        C825   1.395       .  A
C824        H837   1.084       .  S
C825        C826   1.416   1_545  A
C825        H838   1.077       .  S
C826        C832   1.429       .  A
C826        C827   1.423       .  A
C827        C829   1.399       .  A
C827        C828   1.405       .  A
C828        H839   1.084       .  S
C829        C830   1.391       .  A
C829        H840   1.084       .  S
C830        C831   1.400       .  A
C830        H841   1.084       .  S
C831        C832   1.423       .  A
C831        C836   1.407       .  A
C832        C833   1.413       .  A
C833        C834   1.393       .  A
C833        H842   1.077   1_565  S
C834        C835   1.401       .  A
C834        H843   1.083   1_565  S
C835        C836   1.401       .  A
C836        H844   1.084       .  S
C845        C846   1.404       .  A
C845        C850   1.403       .  A
C846        C847   1.401       .  A
C846        H859   1.082       .  S
C847        C848   1.416       .  A
C847        H860   1.078       .  S
C848        C854   1.432       .  A
C848        C849   1.421       .  A
C849        C851   1.399   1_545  A
C849        C850   1.401       .  A
C850        H861   1.081       .  S
C851        C852   1.386       .  A
C851        H862   1.084       .  S
C852        C853   1.397   1_565  A
C852        H863   1.084       .  S
C853        C854   1.424       .  A
C853        C858   1.401       .  A
C854        C855   1.417       .  A
C855        C856   1.400       .  A
C855        H864   1.078       .  S
C856        C857   1.399       .  A
C856        H865   1.083       .  S
C857        C858   1.395       .  A
C858        H866   1.085   1_545  S
C867        C868   1.401       .  A
C867        C872   1.399       .  A
C868        C869   1.400       .  A
C868        H881   1.083       .  S
C869        C870   1.416       .  A
C869        H882   1.077       .  S
C870        C876   1.432       .  A
C870        C871   1.424       .  A
C871        C873   1.398       .  A
C871        C872   1.403       .  A
C872        H883   1.085       .  S
C873        C874   1.387       .  A
C873        H884   1.084   1_545  S
C874        C875   1.399       .  A
C874        H885   1.084       .  S
C875        C876   1.421       .  A
C875        C880   1.402       .  A
C876        C877   1.416       .  A
C877        C878   1.400       .  A
C877        H886   1.077       .  S
C878        C879   1.403       .  A
C878        H887   1.082       .  S
C879        C880   1.403       .  A
C880        H888   1.082       .  S
C889        C890   1.397       .  A
C889        C894   1.398       .  A
C890        C891   1.398       .  A
C890        H903   1.083       .  S
C891        C892   1.417       .  A
C891        H904   1.077       .  S
C892        C898   1.432       .  A
C892        C893   1.424       .  A
C893        C895   1.399       .  A
C893        C894   1.406       .  A
C894        H905   1.085       .  S
C895        C896   1.390       .  A
C895        H906   1.084       .  S
C896        C897   1.399       .  A
C896        H907   1.084       .  S
C897        C898   1.423       .  A
C897        C902   1.405       .  A
C898        C899   1.415       .  A
C899        C900   1.397       .  A
C899        H908   1.077       .  S
C900        C901   1.401       .  A
C900        H909   1.083       .  S
C901        C902   1.400       .  A
C902        H910   1.084       .  S
C911        C912   1.396       .  A
C911        C916   1.396       .  A
C912        C913   1.396       .  A
C912        H925   1.083       .  S
C913        C914   1.416       .  A
C913        H926   1.077       .  S
C914        C920   1.429       .  A
C914        C915   1.424       .  A
C915        C917   1.398       .  A
C915        C916   1.401       .  A
C916        H927   1.085       .  S
C917        C918   1.388       .  A
C917        H928   1.084       .  S
C918        C919   1.399       .  A
C918        H929   1.084       .  S
C919        C920   1.422       .  A
C919        C924   1.402       .  A
C920        C921   1.416       .  A
C921        C922   1.398       .  A
C921        H930   1.078       .  S
C922        C923   1.400       .  A
C922        H931   1.083       .  S
C923        C924   1.400       .  A
C924        H932   1.084       .  S
C933        C934   1.402       .  A
C933        C938   1.405       .  A
C934        C935   1.389       .  A
C934        H947   1.080       .  S
C935        C936   1.411       .  A
C935        H948   1.076       .  S
C936        C942   1.426       .  A
C936        C937   1.422       .  A
C937        C939   1.401       .  A
C937        C938   1.409       .  A
C938        H949   1.083       .  S
C939        C940   1.392       .  A
C939        H950   1.084       .  S
C940        C941   1.400       .  A
C940        H951   1.084       .  S
C941        C942   1.423       .  A
C941        C946   1.406       .  A
C942        C943   1.415       .  A
C943        C944   1.390       .  A
C943        H952   1.076       .  S
C944        C945   1.395       .  A
C944        H953   1.084       .  S
C945        C946   1.400       .  A
C946        H954   1.085       .  S
C955        C956   1.403       .  A
C955        C960   1.405       .  A
C956        C957   1.401       .  A
C956        H969   1.082       .  S
C957        C958   1.416       .  A
C957        H970   1.077       .  S
C958        C964   1.434       .  A
C958        C959   1.421       .  A
C959        C961   1.400       .  A
C959        C960   1.405       .  A
C960        H971   1.082       .  S
C961        C962   1.389       .  A
C961        H972   1.084       .  S
C962        C963   1.399       .  A
C962        H973   1.084       .  S
C963        C964   1.424       .  A
C963        C968   1.406       .  A
C964        C965   1.416       .  A
C965        C966   1.400       .  A
C965        H974   1.077       .  S
C966        C967   1.399       .  A
C966        H975   1.083       .  S
C967        C968   1.399       .  A
C968        H976   1.085       .  S
C977        C978   1.402       .  A
C977        C982   1.402       .  A
C978        C979   1.393       .  A
C978        H991   1.082       .  S
C979        C980   1.413       .  A
C979        H992   1.077       .  S
C980        C986   1.428       .  A
C980        C981   1.422       .  A
C981        C983   1.400       .  A
C981        C982   1.406       .  A
C982        H993   1.083       .  S
C983        C984   1.390       .  A
C983        H994   1.084       .  S
C984        C985   1.399       .  A
C984        H995   1.084       .  S
C985        C986   1.423       .  A
C985        C990   1.405       .  A
C986        C987   1.416       .  A
C987        C988   1.394       .  A
C987        H996   1.077       .  S
C988        C989   1.395       .  A
C988        H997   1.084       .  S
C989        C990   1.398       .  A
C990        H998   1.084       .  S
C999       C1000   1.397       .  A
C999       C1004   1.394       .  A
C1000      C1001   1.398       .  A
C1000      H1013   1.083       .  S
C1001      C1002   1.417       .  A
C1001      H1014   1.077       .  S
C1002      C1008   1.430       .  A
C1002      C1003   1.424       .  A
C1003      C1005   1.397       .  A
C1003      C1004   1.399       .  A
C1004      H1015   1.085       .  S
C1005      C1006   1.385       .  A
C1005      H1016   1.084       .  S
C1006      C1007   1.398       .  A
C1006      H1017   1.084       .  S
C1007      C1008   1.421       .  A
C1007      C1012   1.399       .  A
C1008      C1009   1.417       .  A
C1009      C1010   1.400       .  A
C1009      H1018   1.077       .  S
C1010      C1011   1.400       .  A
C1010      H1019   1.083       .  S
C1011      C1012   1.400       .  A
C1012      H1020   1.083       .  S
C1021      C1022   1.397       .  A
C1021      C1026   1.398       .  A
C1022      C1023   1.395       .  A
C1022      H1035   1.084       .  S
C1023      C1024   1.416       .  A
C1023      H1036   1.077       .  S
C1024      C1030   1.431       .  A
C1024      C1025   1.424       .  A
C1025      C1027   1.400       .  A
C1025      C1026   1.407       .  A
C1026      H1037   1.084       .  S
C1027      C1028   1.391       .  A
C1027      H1038   1.084       .  S
C1028      C1029   1.400       .  A
C1028      H1039   1.084       .  S
C1029      C1030   1.423       .  A
C1029      C1034   1.409       .  A
C1030      C1031   1.414       .  A
C1031      C1032   1.395       .  A
C1031      H1040   1.077       .  S
C1032      C1033   1.401       .  A
C1032      H1041   1.083       .  S
C1033      C1034   1.402       .  A
C1034      H1042   1.084       .  S
C1043      C1044   1.400       .  A
C1043      C1048   1.402       .  A
C1044      C1045   1.395       .  A
C1044      H1057   1.083       .  S
C1045      C1046   1.414       .  A
C1045      H1058   1.077       .  S
C1046      C1052   1.430       .  A
C1046      C1047   1.423       .  A
C1047      C1049   1.400       .  A
C1047      C1048   1.408       .  A
C1048      H1059   1.084       .  S
C1049      C1050   1.392       .  A
C1049      H1060   1.084       .  S
C1050      C1051   1.400       .  A
C1050      H1061   1.084       .  S
C1051      C1052   1.424       .  A
C1051      C1056   1.408       .  A
C1052      C1053   1.415       .  A
C1053      C1054   1.394       .  A
C1053      H1062   1.077       .  S
C1054      C1055   1.396       .  A
C1054      H1063   1.084       .  S
C1055      C1056   1.399       .  A
C1056      H1064   1.084       .  S
C1065      C1066   1.398       .  A
C1065      C1070   1.399   1_565  A
C1066      C1067   1.398       .  A
C1066      H1079   1.083       .  S
C1067      C1068   1.416       .  A
C1067      H1080   1.077       .  S
C1068      C1074   1.433       .  A
C1068      C1069   1.425       .  A
C1069      C1071   1.399   1_565  A
C1069      C1070   1.407   1_565  A
C1070      H1081   1.085       .  S
C1071      C1072   1.389       .  A
C1071      H1082   1.084       .  S
C1072      C1073   1.400   1_545  A
C1072      H1083   1.084       .  S
C1073      C1074   1.421       .  A
C1073      C1078   1.404       .  A
C1074      C1075   1.417       .  A
C1075      C1076   1.400       .  A
C1075      H1084   1.077       .  S
C1076      C1077   1.400       .  A
C1076      H1085   1.083       .  S
C1077      C1078   1.403       .  A
C1078      H1086   1.083       .  S
C1087      C1088   1.399       .  A
C1087      C1092   1.397       .  A
C1088      C1089   1.399       .  A
C1088      H1101   1.083       .  S
C1089      C1090   1.417       .  A
C1089      H1102   1.077       .  S
C1090      C1096   1.431       .  A
C1090      C1091   1.423       .  A
C1091      C1093   1.398   1_545  A
C1091      C1092   1.402       .  A
C1092      H1103   1.085   1_545  S
C1093      C1094   1.387       .  A
C1093      H1104   1.084       .  S
C1094      C1095   1.399   1_565  A
C1094      H1105   1.084       .  S
C1095      C1096   1.422       .  A
C1095      C1100   1.403       .  A
C1096      C1097   1.415       .  A
C1097      C1098   1.399       .  A
C1097      H1106   1.077       .  S
C1098      C1099   1.401       .  A
C1098      H1107   1.082       .  S
C1099      C1100   1.402       .  A
C1100      H1108   1.083       .  S
C1109      C1110   1.403       .  A
C1109      C1114   1.401       .  A
C1110      C1111   1.399       .  A
C1110      H1123   1.083   1_545  S
C1111      C1112   1.415       .  A
C1111      H1124   1.077   1_545  S
C1112      C1118   1.434       .  A
C1112      C1113   1.424       .  A
C1113      C1115   1.399       .  A
C1113      C1114   1.408       .  A
C1114      H1125   1.084       .  S
C1115      C1116   1.390       .  A
C1115      H1126   1.084       .  S
C1116      C1117   1.399       .  A
C1116      H1127   1.084       .  S
C1117      C1118   1.424       .  A
C1117      C1122   1.407       .  A
C1118      C1119   1.417   1_545  A
C1119      C1120   1.400       .  A
C1119      H1128   1.077       .  S
C1120      C1121   1.399   1_565  A
C1120      H1129   1.083       .  S
C1121      C1122   1.399       .  A
C1122      H1130   1.084       .  S
C1131      C1132   1.399       .  A
C1131      C1136   1.395       .  A
C1132      C1133   1.400       .  A
C1132      H1145   1.083       .  S
C1133      C1134   1.417       .  A
C1133      H1146   1.078       .  S
C1134      C1140   1.432       .  A
C1134      C1135   1.424       .  A
C1135      C1137   1.397   1_565  A
C1135      C1136   1.402       .  A
C1136      H1147   1.085   1_565  S
C1137      C1138   1.386       .  A
C1137      H1148   1.084       .  S
C1138      C1139   1.398   1_545  A
C1138      H1149   1.084       .  S
C1139      C1140   1.422       .  A
C1139      C1144   1.401       .  A
C1140      C1141   1.417       .  A
C1141      C1142   1.402       .  A
C1141      H1150   1.078       .  S
C1142      C1143   1.402       .  A
C1142      H1151   1.082       .  S
C1143      C1144   1.401       .  A
C1144      H1152   1.083       .  S
C1153      C1154   1.396       .  A
C1153      C1158   1.394       .  A
C1154      C1155   1.397       .  A
C1154      H1167   1.083       .  S
C1155      C1156   1.417       .  A
C1155      H1168   1.077       .  S
C1156      C1162   1.428       .  A
C1156      C1157   1.424       .  A
C1157      C1159   1.397       .  A
C1157      C1158   1.398       .  A
C1158      H1169   1.085       .  S
C1159      C1160   1.386       .  A
C1159      H1170   1.084       .  S
C1160      C1161   1.398       .  A
C1160      H1171   1.084       .  S
C1161      C1162   1.422       .  A
C1161      C1166   1.400       .  A
C1162      C1163   1.416       .  A
C1163      C1164   1.398       .  A
C1163      H1172   1.077       .  S
C1164      C1165   1.400       .  A
C1164      H1173   1.083       .  S
C1165      C1166   1.400       .  A
C1166      H1174   1.084       .  S
C1175      C1176   1.398       .  A
C1175      C1180   1.396       .  A
C1176      C1177   1.399       .  A
C1176      H1189   1.083       .  S
C1177      C1178   1.417       .  A
C1177      H1190   1.077       .  S
C1178      C1184   1.432       .  A
C1178      C1179   1.424       .  A
C1179      C1181   1.398       .  A
C1179      C1180   1.403       .  A
C1180      H1191   1.085       .  S
C1181      C1182   1.388       .  A
C1181      H1192   1.084       .  S
C1182      C1183   1.399       .  A
C1182      H1193   1.084       .  S
C1183      C1184   1.422       .  A
C1183      C1188   1.403       .  A
C1184      C1185   1.416       .  A
C1185      C1186   1.400       .  A
C1185      H1194   1.077       .  S
C1186      C1187   1.402       .  A
C1186      H1195   1.082       .  S
C1187      C1188   1.403       .  A
C1188      H1196   1.082       .  S
C1197      C1198   1.401       .  A
C1197      C1202   1.402       .  A
C1198      C1199   1.397       .  A
C1198      H1211   1.082       .  S
C1199      C1200   1.415       .  A
C1199      H1212   1.077       .  S
C1200      C1206   1.427       .  A
C1200      C1201   1.420       .  A
C1201      C1203   1.399       .  A
C1201      C1202   1.398       .  A
C1202      H1213   1.081       .  S
C1203      C1204   1.385       .  A
C1203      H1214   1.084       .  S
C1204      C1205   1.397       .  A
C1204      H1215   1.084       .  S
C1205      C1206   1.424       .  A
C1205      C1210   1.398       .  A
C1206      C1207   1.415       .  A
C1207      C1208   1.395       .  A
C1207      H1216   1.077       .  S
C1208      C1209   1.398       .  A
C1208      H1217   1.083       .  S
C1209      C1210   1.396       .  A
C1210      H1218   1.085       .  S
C1219      C1220   1.397       .  A
C1219      C1224   1.397       .  A
C1220      C1221   1.397       .  A
C1220      H1233   1.083       .  S
C1221      C1222   1.417       .  A
C1221      H1234   1.077       .  S
C1222      C1228   1.429       .  A
C1222      C1223   1.423       .  A
C1223      C1225   1.398       .  A
C1223      C1224   1.401       .  A
C1224      H1235   1.085       .  S
C1225      C1226   1.387       .  A
C1225      H1236   1.084       .  S
C1226      C1227   1.399       .  A
C1226      H1237   1.084       .  S
C1227      C1228   1.422       .  A
C1227      C1232   1.402       .  A
C1228      C1229   1.415       .  A
C1229      C1230   1.397       .  A
C1229      H1238   1.077       .  S
C1230      C1231   1.401       .  A
C1230      H1239   1.082       .  S
C1231      C1232   1.401       .  A
C1232      H1240   1.083       .  S
C1241      C1242   1.402       .  A
C1241      C1246   1.405       .  A
C1242      C1243   1.399       .  A
C1242      H1255   1.081       .  S
C1243      C1244   1.415       .  A
C1243      H1256   1.077       .  S
C1244      C1250   1.431       .  A
C1244      C1245   1.421       .  A
C1245      C1247   1.400       .  A
C1245      C1246   1.403       .  A
C1246      H1257   1.081       .  S
C1247      C1248   1.388       .  A
C1247      H1258   1.084       .  S
C1248      C1249   1.398       .  A
C1248      H1259   1.084       .  S
C1249      C1250   1.424       .  A
C1249      C1254   1.403       .  A
C1250      C1251   1.417       .  A
C1251      C1252   1.398       .  A
C1251      H1260   1.077       .  S
C1252      C1253   1.398       .  A
C1252      H1261   1.083       .  S
C1253      C1254   1.398       .  A
C1254      H1262   1.085       .  S
C1263      C1264   1.400       .  A
C1263      C1268   1.402       .  A
C1264      C1265   1.391       .  A
C1264      H1277   1.082       .  S
C1265      C1266   1.412       .  A
C1265      H1278   1.077       .  S
C1266      C1272   1.428       .  A
C1266      C1267   1.423       .  A
C1267      C1269   1.400       .  A
C1267      C1268   1.408       .  A
C1268      H1279   1.084       .  S
C1269      C1270   1.392       .  A
C1269      H1280   1.084       .  S
C1270      C1271   1.400       .  A
C1270      H1281   1.084       .  S
C1271      C1272   1.423       .  A
C1271      C1276   1.406       .  A
C1272      C1273   1.416       .  A
C1273      C1274   1.394       .  A
C1273      H1282   1.077       .  S
C1274      C1275   1.396       .  A
C1274      H1283   1.084       .  S
C1275      C1276   1.400       .  A
C1276      H1284   1.084       .  S
C1285      C1286   1.395       .  A
C1285      C1290   1.397       .  A
C1286      C1287   1.392       .  A
C1286      H1299   1.084       .  S
C1287      C1288   1.415       .  A
C1287      H1300   1.077       .  S
C1288      C1294   1.427       .  A
C1288      C1289   1.423       .  A
C1289      C1291   1.399       .  A
C1289      C1290   1.404       .  A
C1290      H1301   1.085       .  S
C1291      C1292   1.391       .  A
C1291      H1302   1.084       .  S
C1292      C1293   1.400       .  A
C1292      H1303   1.084       .  S
C1293      C1294   1.422       .  A
C1293      C1298   1.406       .  A
C1294      C1295   1.413       .  A
C1295      C1296   1.393       .  A
C1295      H1304   1.077       .  S
C1296      C1297   1.400       .  A
C1296      H1305   1.083       .  S
C1297      C1298   1.402       .  A
C1298      H1306   1.084       .  S
C1307      C1308   1.399       .  A
C1307      C1312   1.394       .  A
C1308      C1309   1.399       .  A
C1308      H1321   1.083       .  S
C1309      C1310   1.416       .  A
C1309      H1322   1.078       .  S
C1310      C1316   1.431       .  A
C1310      C1311   1.425       .  A
C1311      C1313   1.396       .  A
C1311      C1312   1.400       .  A
C1312      H1323   1.085       .  S
C1313      C1314   1.385       .  A
C1313      H1324   1.084       .  S
C1314      C1315   1.398       .  A
C1314      H1325   1.084       .  S
C1315      C1316   1.420       .  A
C1315      C1320   1.398       .  A
C1316      C1317   1.417       .  A
C1317      C1318   1.402       .  A
C1317      H1326   1.078       .  S
C1318      C1319   1.403       .  A
C1318      H1327   1.082       .  S
C1319      C1320   1.402       .  A
C1320      H1328   1.081       .  S
C1329      C1330   1.397       .  A
C1329      C1334   1.401       .  A
C1330      C1331   1.394       .  A
C1330      H1343   1.084       .  S
C1331      C1332   1.416       .  A
C1331      H1344   1.077       .  S
C1332      C1338   1.430       .  A
C1332      C1333   1.423       .  A
C1333      C1335   1.400       .  A
C1333      C1334   1.408       .  A
C1334      H1345   1.084       .  S
C1335      C1336   1.393       .  A
C1335      H1346   1.084       .  S
C1336      C1337   1.401       .  A
C1336      H1347   1.084       .  S
C1337      C1338   1.423       .  A
C1337      C1342   1.411       .  A
C1338      C1339   1.412       .  A
C1339      C1340   1.393       .  A
C1339      H1348   1.077       .  S
C1340      C1341   1.402       .  A
C1340      H1349   1.081       .  S
C1341      C1342   1.405       .  A
C1342      H1350   1.083       .  S
C1351      C1352   1.398       .  A
C1351      C1356   1.400       .  A
C1352      C1353   1.392       .  A
C1352      H1365   1.083       .  S
C1353      C1354   1.414       .  A
C1353      H1366   1.076       .  S
C1354      C1360   1.428       .  A
C1354      C1355   1.424       .  A
C1355      C1357   1.400       .  A
C1355      C1356   1.406       .  A
C1356      H1367   1.084       .  S
C1357      C1358   1.391       .  A
C1357      H1368   1.084       .  S
C1358      C1359   1.400       .  A
C1358      H1369   1.084       .  S
C1359      C1360   1.423       .  A
C1359      C1364   1.405       .  A
C1360      C1361   1.416       .  A
C1361      C1362   1.394       .  A
C1361      H1370   1.077       .  S
C1362      C1363   1.396       .  A
C1362      H1371   1.083       .  S
C1363      C1364   1.399       .  A
C1364      H1372   1.084       .  S
C1373      C1374   1.396       .  A
C1373      C1378   1.399       .  A
C1374      C1375   1.395       .  A
C1374      H1387   1.084       .  S
C1375      C1376   1.417       .  A
C1375      H1388   1.077       .  S
C1376      C1382   1.430       .  A
C1376      C1377   1.423       .  A
C1377      C1379   1.400       .  A
C1377      C1378   1.405       .  A
C1378      H1389   1.085       .  S
C1379      C1380   1.391       .  A
C1379      H1390   1.084       .  S
C1380      C1381   1.400       .  A
C1380      H1391   1.084       .  S
C1381      C1382   1.424       .  A
C1381      C1386   1.409       .  A
C1382      C1383   1.412       .  A
C1383      C1384   1.393       .  A
C1383      H1392   1.077       .  S
C1384      C1385   1.401       .  A
C1384      H1393   1.083       .  S
C1385      C1386   1.401       .  A
C1386      H1394   1.084       .  S
C1395      C1396   1.396       .  A
C1395      C1400   1.401       .  A
C1396      C1397   1.396       .  A
C1396      H1409   1.084       .  S
C1397      C1398   1.416       .  A
C1397      H1410   1.077       .  S
C1398      C1404   1.432       .  A
C1398      C1399   1.424       .  A
C1399      C1401   1.400       .  A
C1399      C1400   1.409       .  A
C1400      H1411   1.084       .  S
C1401      C1402   1.392       .  A
C1401      H1412   1.084       .  S
C1402      C1403   1.400       .  A
C1402      H1413   1.084       .  S
C1403      C1404   1.423       .  A
C1403      C1408   1.410       .  A
C1404      C1405   1.414       .  A
C1405      C1406   1.396       .  A
C1405      H1414   1.077       .  S
C1406      C1407   1.402       .  A
C1406      H1415   1.082       .  S
C1407      C1408   1.404       .  A
C1408      H1416   1.084       .  S
