geometry optimzed in LAMMPS
_audit_creation_date              2020-11-30 
_audit_creation_method            'lammps2cif' 
_symmetry_space_group_name_H-M    'P1' 
_symmetry_Int_Tables_number       1 
_symmetry_cell_setting            triclinic 
loop_ 
_symmetry_equiv_pos_as_xyz 
  x,y,z 
_cell_length_a                    47.75894901 
_cell_length_b                    39.61040268651346 
_cell_length_c                    35.340466115701986 
_cell_angle_alpha                 90.3921090224047 
_cell_angle_beta                  90.61483403260456 
_cell_angle_gamma                 90.25025646706511 
loop_ 
_atom_site_label 
_atom_site_type_symbol 
_atom_site_fract_x 
_atom_site_fract_y 
_atom_site_fract_z 
_atom_site_charge 
C1          C  0.11747300  0.29156413  0.21103005     0.80100
N2          N  0.10569896  0.29876584  0.24502959    -0.78200
C3          C  0.11732972  0.28661358  0.27749882     0.82500
N4          N  0.14075959  0.26749183  0.27580322    -0.78200
C5          C  0.15250694  0.26009783  0.24199939     0.82600
N6          N  0.14076000  0.27208078  0.20960674    -0.79900
O7          O  0.99688447  0.65614569  0.05167485    -0.57900
C8          C  0.00249168  0.65156437  0.43775290     0.74700
O9          O  0.08077411  0.64679162  0.99943948    -0.59100
C10         C  0.00741585  0.64279591  0.08095315     0.74700
C11         C  0.03415119  0.56161039  0.49914855     0.77100
Cd12       Cd  0.03073164  0.63340995  0.50693698     1.37500
O13         O  0.99038520  0.65466200  0.46922904    -0.57900
O14         O  0.01097114  0.57691417  0.99860688    -0.56700
C15         C  0.07896895  0.67711872  0.01057645     0.77000
O16         O  0.05596250  0.57956450  0.00341178    -0.59100
O17         O  0.02735379  0.64085091  0.43840329    -0.57600
O18         O  0.02863347  0.62429709  0.07607754    -0.57600
O19         O  0.05489319  0.68695398  0.51997582    -0.56700
O20         O  0.08502237  0.32767342  0.03792890    -0.57900
C21         C  0.07249986  0.32248445  0.42347244     0.74700
O22         O  0.49797265  0.32543540  0.98081821    -0.59100
C23         C  0.07149607  0.33495553  0.06754286     0.74700
C24         C  0.04174551  0.41611208  0.49007357     0.77100
Cd25       Cd  0.04708224  0.34375783  0.49331441     1.37500
O26         O  0.08566799  0.32028201  0.45464777    -0.57900
O27         O  0.06512943  0.40170711  0.48632239    -0.56700
C28         C  0.50045945  0.29703895  0.99673567     0.77000
O29         O  0.52078553  0.39686362  0.99400329    -0.59100
O30         O  0.04812197  0.33462054  0.42486117    -0.57600
O31         O  0.04754284  0.34782442  0.06264246    -0.57600
O32         O  0.52420292  0.29080895  0.51106572    -0.56700
C33         C  0.45831223  0.67951620  0.22423102     0.80100
N34         N  0.43560272  0.70004153  0.22304528    -0.78200
C35         C  0.42359073  0.71073430  0.25554519     0.82500
N36         N  0.43466350  0.70181935  0.28935354    -0.78200
C37         C  0.45752467  0.68181818  0.29087618     0.82600
N38         N  0.96921024  0.67034998  0.25837326    -0.79900
C39         C  0.21109477  0.79318904  0.04535797     0.80500
N40         N  0.22367562  0.80115048  0.01227951    -0.78200
C41         C  0.21217120  0.79062003  0.47887375     0.82500
N42         N  0.18822724  0.77209948  0.47875479    -0.78200
C43         C  0.17590832  0.76391507  0.01177529     0.82600
N44         N  0.18737389  0.77436930  0.04499984    -0.79900
O45         O  0.24231015  0.82505948  0.22176903    -0.57900
C46         C  0.25865191  0.82390752  0.33422880     0.74700
O47         O  0.33091829  0.82839322  0.27283536    -0.59100
C48         C  0.25633503  0.82780083  0.19166302     0.74700
C49         C  0.28538732  0.91372640  0.25808321     0.77100
Cd50       Cd  0.28159934  0.84224707  0.26270554     1.37500
O51         O  0.24646318  0.81569111  0.30353983    -0.57900
O52         O  0.26218972  0.89904621  0.26318467    -0.56700
C53         C  0.32883279  0.79924994  0.25810666     0.77000
O54         O  0.30683057  0.89529238  0.25552634    -0.59100
O55         O  0.28129423  0.84032696  0.33174167    -0.57600
O56         O  0.28132965  0.83807097  0.19493166    -0.57600
O57         O  0.30491750  0.79047225  0.24593271    -0.56700
O58         O  0.33698793  0.14828701  0.29123334    -0.57900
C59         C  0.32394587  0.13922068  0.17760302     0.74700
O60         O  0.27102494  0.07684755  0.25346100    -0.59100
C61         C  0.32454356  0.14189064  0.32179142     0.74700
C62         C  0.24886302  0.17231363  0.24458847     0.77100
Cd63       Cd  0.29756530  0.12929304  0.24925929     1.37500
O64         O  0.33214642  0.15468500  0.20720908    -0.57900
O65         O  0.27328715  0.18296235  0.23786169    -0.56700
C66         C  0.29231447  0.05813993  0.25064603     0.77000
O67         O  0.24690521  0.14149283  0.25316045    -0.59100
O68         O  0.30374279  0.11872714  0.18099584    -0.57600
O69         O  0.30009386  0.12994754  0.31857445    -0.57600
O70         O  0.31574107  0.07252951  0.24636926    -0.56700
C71         C  0.37528582  0.16970163  0.03502357     0.80100
N72         N  0.39787800  0.19071744  0.03491404    -0.78200
C73         C  0.40908862  0.20069522  0.00160928     0.82500
N74         N  0.39733362  0.19013070  0.46846235    -0.78200
C75         C  0.37461084  0.16940385  0.46837403     0.82600
N76         N  0.36353372  0.15931438  0.00172620    -0.79900
C77         C  0.37585963  0.14140507  0.40492512    -0.02000
C78         C  0.36101421  0.16014546  0.43203083     0.07700
C79         C  0.33406521  0.17230753  0.42318220    -0.02100
C80         C  0.32214120  0.16614286  0.38719453    -0.02100
C81         C  0.33740486  0.14839259  0.35946073     0.07800
C82         C  0.36445794  0.13626774  0.36839052    -0.02300
Br83       Br  0.38593939  0.11208099  0.33116375    -0.00800
Br84       Br  0.41116690  0.12117475  0.41886442    -0.00900
Br85       Br  0.28560584  0.18437528  0.37527073    -0.00900
Br86       Br  0.31398774  0.19908360  0.45962594    -0.00800
C87         C  0.34403388  0.18476149  0.08840236    -0.02000
C88         C  0.36180526  0.16111512  0.07104636     0.07700
C89         C  0.36639595  0.12949170  0.08804588    -0.02100
C90         C  0.35397486  0.12205083  0.12306704    -0.02100
C91         C  0.33659102  0.14604302  0.14062943     0.07800
C92         C  0.33130635  0.17713586  0.12298640    -0.02300
Br93       Br  0.30575581  0.20878861  0.14577052    -0.00800
Br94       Br  0.33656045  0.22736691  0.06434027    -0.00900
Br95       Br  0.36146381  0.07963979  0.14766808    -0.00900
Br96       Br  0.38982428  0.09664556  0.06341386    -0.00800
C97         C  0.26987668  0.96826827  0.23031698    -0.02000
C98         C  0.28735857  0.95059732  0.25568240     0.07700
C99         C  0.30634859  0.96826924  0.27939108    -0.02100
C100        C  0.30783940  0.00359662  0.27781157    -0.02100
C101        C  0.29016255  0.02129290  0.25271146     0.07800
C102        C  0.27085002  0.00367650  0.22939690    -0.02300
Br103      Br  0.24616628  0.02778472  0.19543703    -0.00800
Br104      Br  0.24598939  0.94402903  0.19490238    -0.00900
Br105      Br  0.33280200  0.02775676  0.31205147    -0.00900
Br106      Br  0.32942181  0.94433042  0.31546406    -0.00800
C107        C  0.22986445  0.83308701  0.43296740    -0.02000
C108        C  0.22538963  0.79904392  0.44268961     0.07700
C109        C  0.23191855  0.77308559  0.41670068    -0.02100
C110        C  0.24243753  0.78121880  0.38088522    -0.02100
C111        C  0.24698100  0.81523505  0.37126499     0.07800
C112        C  0.24062595  0.84113680  0.39727504    -0.02300
Br113      Br  0.24453598  0.88783310  0.38283068    -0.00800
Br114      Br  0.21961449  0.86893233  0.46741957    -0.00900
Br115      Br  0.25103610  0.74568119  0.34526947    -0.00900
Br116      Br  0.22754168  0.72623099  0.43054688    -0.00800
C117        C  0.24938858  0.79056088  0.09337963    -0.02000
C118        C  0.22335413  0.80366262  0.08179549     0.07700
C119        C  0.20789010  0.82439493  0.10645117    -0.02100
C120        C  0.21872204  0.83256641  0.14247299    -0.02100
C121        C  0.24457313  0.81906293  0.15430715     0.07800
C122        C  0.25971782  0.79768104  0.12990338    -0.02300
Br123      Br  0.29348267  0.77575114  0.14741188    -0.00800
Br124      Br  0.27020372  0.76124934  0.06008477    -0.00900
Br125      Br  0.19862387  0.86330922  0.17484149    -0.00900
Br126      Br  0.17198777  0.84202860  0.09071638    -0.00800
C127        C  0.34948382  0.74170912  0.26426420    -0.02000
C128        C  0.35292001  0.77630388  0.25575346     0.07700
C129        C  0.37958332  0.78884848  0.24587401    -0.02100
C130        C  0.40286137  0.76736387  0.24674685    -0.02100
C131        C  0.39921782  0.73290033  0.25442982     0.07800
C132        C  0.37258578  0.71997267  0.26294212    -0.02300
Br133      Br  0.36794794  0.67253713  0.27362112    -0.00800
Br134      Br  0.31370672  0.72398262  0.28004853    -0.00900
Br135      Br  0.44011025  0.78544578  0.24033763    -0.00900
Br136      Br  0.38433307  0.83470149  0.22876139    -0.00800
C137        C  0.48230876  0.23723406  0.99426938    -0.02000
C138        C  0.47704656  0.27227087  0.99847142     0.07700
C139        C  0.44931184  0.28333612  0.00463348    -0.02100
C140        C  0.42707323  0.25986156  0.00453206    -0.02100
C141        C  0.43250554  0.22508017  0.00120943     0.07800
C142        C  0.46013060  0.21376848  0.99655457    -0.02300
Br143      Br  0.46745610  0.16593039  0.49347725    -0.00800
Br144      Br  0.51954262  0.22082419  0.48367350    -0.00900
Br145      Br  0.38890816  0.27534276  0.00780896    -0.00900
Br146      Br  0.44162517  0.33010325  0.01653600    -0.00800
C147        C  0.10128544  0.73395530  0.50051762    -0.02000
C148        C  0.10362527  0.69989639  0.01218023     0.07700
C149        C  0.12985759  0.68760205  0.02483420    -0.02100
C150        C  0.15360464  0.70862208  0.02408619    -0.02100
C151        C  0.15114023  0.74213501  0.01177111     0.07800
C152        C  0.12509963  0.75490879  0.50013843    -0.02300
Br153      Br  0.12221349  0.80133886  0.48394230    -0.00800
Br154      Br  0.06591402  0.75250918  0.48421271    -0.00900
Br155      Br  0.18994161  0.69132117  0.03858456    -0.00900
Br156      Br  0.13333170  0.64293630  0.04597923    -0.00800
C157        C  0.98337110  0.69919160  0.34924990    -0.02000
C158        C  0.96972835  0.67370295  0.32793843     0.07700
C159        C  0.96539304  0.64157650  0.34360597    -0.02100
C160        C  0.97403186  0.63515922  0.38102999    -0.02100
C161        C  0.98875190  0.66014510  0.40172917     0.07800
C162        C  0.99294876  0.69230525  0.38610529    -0.02300
Br163      Br  0.01119080  0.72705874  0.41574338    -0.00800
Br164      Br  0.99023651  0.74294382  0.32719751    -0.00900
Br165      Br  0.96449105  0.59295118  0.40467002    -0.00900
Br166      Br  0.44813180  0.60636165  0.31341612    -0.00800
C167        C  0.96641359  0.64538972  0.12410334    -0.02000
C168        C  0.99546437  0.64904363  0.11877982     0.07700
C169        C  0.01261272  0.66076808  0.14891509    -0.02100
C170        C  0.00053148  0.67077993  0.18340287    -0.02100
C171        C  0.97127820  0.66792398  0.18848388     0.07800
C172        C  0.45433781  0.65471176  0.15876724    -0.02300
Br173      Br  0.41454056  0.64829520  0.16534912    -0.00800
Br174      Br  0.44324676  0.62584428  0.08437996    -0.00900
Br175      Br  0.02410500  0.69122994  0.22212492    -0.00900
Br176      Br  0.05262240  0.66473689  0.14262623    -0.00800
C177        C  0.05339122  0.50935668  0.46915267    -0.02000
C178        C  0.03555611  0.52454649  0.49572888     0.07700
C179        C  0.01932497  0.50426707  0.01968558    -0.02100
C180        C  0.02098791  0.46889849  0.01736560    -0.02100
C181        C  0.03915139  0.45342620  0.49108146     0.07800
C182        C  0.05545414  0.47394404  0.46703039    -0.02300
Br183      Br  0.08035352  0.45423270  0.43032029    -0.00800
Br184      Br  0.07416310  0.53708220  0.43441368    -0.00900
Br185      Br  0.49980878  0.44233538  0.05287848    -0.00900
Br186      Br  0.49628049  0.52495183  0.05795022    -0.00800
C187        C  0.07930972  0.28314802  0.32587309    -0.02000
C188        C  0.10561669  0.29563072  0.31470510     0.07700
C189        C  0.12148332  0.31592259  0.33991003    -0.02100
C190        C  0.11128880  0.32347993  0.37616595    -0.02100
C191        C  0.08465506  0.31172245  0.38703358     0.07800
C192        C  0.06883441  0.29114326  0.36190726    -0.02300
Br193      Br  0.03348798  0.27207115  0.37763493    -0.00800
Br194      Br  0.05780662  0.25422206  0.29256844    -0.00900
Br195      Br  0.13361371  0.35113053  0.41007322    -0.00900
Br196      Br  0.15643287  0.33540255  0.32382850    -0.00800
C197        C  0.11002278  0.33619149  0.11659376    -0.02000
C198        C  0.08245310  0.32709573  0.10584175     0.07700
C199        C  0.06579280  0.30833021  0.13099942    -0.02100
C200        C  0.07720624  0.29698461  0.16546435    -0.02100
C201        C  0.10508272  0.30494639  0.17559928     0.07800
C202        C  0.12133724  0.32507143  0.15132975    -0.02300
Br203      Br  0.15891716  0.33818421  0.16602631    -0.00800
Br204      Br  0.13178813  0.36551214  0.08481436    -0.00900
Br205      Br  0.05522029  0.26772222  0.19679388    -0.00900
Br206      Br  0.52773879  0.29592746  0.11758665    -0.00800
C207        C  0.22655363  0.22876254  0.25562254    -0.02000
C208        C  0.22410702  0.19486201  0.24300833     0.07700
C209        C  0.19788007  0.18290191  0.22913561    -0.02100
C210        C  0.17448292  0.20444581  0.22876172    -0.02100
C211        C  0.17730983  0.23826219  0.24057627     0.07800
C212        C  0.20350895  0.25060055  0.25297697    -0.02300
Br213      Br  0.20816605  0.29789886  0.26476075    -0.00800
Br214      Br  0.26051365  0.24512699  0.27988680    -0.00900
Br215      Br  0.13812666  0.18764491  0.21297483    -0.00900
Br216      Br  0.19356080  0.13751941  0.20943852    -0.00800
C217        C  0.11747302  0.29156132  0.71102976     0.80100
N218        N  0.10569977  0.29876474  0.74502929    -0.78200
C219        C  0.11733088  0.28661370  0.77749862     0.82500
N220        N  0.14076044  0.26749124  0.77580338    -0.78200
C221        C  0.15250687  0.26009533  0.74199938     0.82600
N222        N  0.14075960  0.27207721  0.70960660    -0.79900
O223        O  0.99688244  0.65614336  0.55167469    -0.57900
C224        C  0.00249199  0.65156536  0.93775310     0.74700
O225        O  0.08077323  0.64679089  0.49944190    -0.59100
C226        C  0.00741505  0.64279507  0.58095311     0.74700
C227        C  0.03415272  0.56161079  0.99914729     0.77100
Cd228      Cd  0.03073265  0.63341029  0.00693689     1.37500
O229        O  0.99038500  0.65466011  0.96922921    -0.57900
O230        O  0.01096953  0.57691361  0.49860960    -0.56700
C231        C  0.07896774  0.67711881  0.51057596     0.77000
O232        O  0.05596107  0.57956432  0.50341104    -0.59100
O233        O  0.02735499  0.64085484  0.93840339    -0.57600
O234        O  0.02863378  0.62429818  0.57607744    -0.57600
O235        O  0.05489487  0.68695306  0.01997952    -0.56700
O236        O  0.08502143  0.32767256  0.53793062    -0.57900
C237        C  0.07249932  0.32248243  0.92347169     0.74700
O238        O  0.49797320  0.32543322  0.48081897    -0.59100
C239        C  0.07149549  0.33495528  0.56754465     0.74700
C240        C  0.04174641  0.41611241  0.99007222     0.77100
Cd241      Cd  0.04708245  0.34375824  0.99331289     1.37500
O242        O  0.08566817  0.32028315  0.95464675    -0.57900
O243        O  0.06512995  0.40170701  0.98631914    -0.56700
C244        C  0.50045984  0.29703670  0.49673621     0.77000
O245        O  0.52078471  0.39686291  0.49400350    -0.59100
O246        O  0.04812045  0.33461574  0.92486037    -0.57600
O247        O  0.04754256  0.34782521  0.56264449    -0.57600
O248        O  0.52420248  0.29081121  0.01106516    -0.56700
C249        C  0.45831254  0.67951580  0.72423137     0.80100
N250        N  0.43560323  0.70004136  0.72304508    -0.78200
C251        C  0.42359102  0.71073447  0.75554477     0.82500
N252        N  0.43466357  0.70181973  0.78935330    -0.78200
C253        C  0.45752456  0.68181839  0.79087647     0.82600
N254        N  0.96920997  0.67034974  0.75837373    -0.79900
C255        C  0.21109464  0.79318799  0.54535897     0.80500
N256        N  0.22367529  0.80114942  0.51228043    -0.78200
C257        C  0.21217175  0.79062138  0.97887279     0.82500
N258        N  0.18822762  0.77210094  0.97875323    -0.78200
C259        C  0.17590822  0.76391346  0.51177683     0.82600
N260        N  0.18737396  0.77436798  0.54500138    -0.79900
O261        O  0.24231145  0.82505970  0.72176931    -0.57900
C262        C  0.25865387  0.82390945  0.83422858     0.74700
O263        O  0.33092028  0.82839590  0.77283331    -0.59100
C264        C  0.25633587  0.82780128  0.69166299     0.74700
C265        C  0.28538804  0.91372712  0.75808139     0.77100
Cd266      Cd  0.28160087  0.84224845  0.76270474     1.37500
O267        O  0.24646655  0.81569001  0.80353965    -0.57900
O268        O  0.26219050  0.89904652  0.76318171    -0.56700
C269        C  0.32883470  0.79925249  0.75810506     0.77000
O270        O  0.30683171  0.89529361  0.75552535    -0.59100
O271        O  0.28129474  0.84033184  0.83174126    -0.57600
O272        O  0.28133036  0.83807209  0.69493088    -0.57600
O273        O  0.30491929  0.79047462  0.74593166    -0.56700
O274        O  0.33699024  0.14828088  0.79123650    -0.57900
C275        C  0.32394509  0.13922139  0.67760524     0.74700
O276        O  0.27102507  0.07684826  0.75346561    -0.59100
C277        C  0.32454414  0.14189022  0.82179479     0.74700
C278        C  0.24886290  0.17231200  0.74459055     0.77100
Cd279      Cd  0.29756578  0.12929300  0.74926298     1.37500
O280        O  0.33213961  0.15469470  0.70720851    -0.57900
O281        O  0.27328700  0.18296146  0.73786497    -0.56700
C282        C  0.29231438  0.05814036  0.75064937     0.77000
O283        O  0.24690516  0.14149099  0.75316184    -0.59100
O284        O  0.30374892  0.11871854  0.68100187    -0.57600
O285        O  0.30009252  0.12995284  0.81857834    -0.57600
O286        O  0.31574112  0.07252947  0.74637204    -0.56700
C287        C  0.37528304  0.16970103  0.53502260     0.80100
N288        N  0.39787536  0.19071672  0.53491374    -0.78200
C289        C  0.40908613  0.20069553  0.50160917     0.82500
N290        N  0.39733645  0.19012937  0.96846264    -0.78200
C291        C  0.37461373  0.16940246  0.96837517     0.82600
N292        N  0.36353093  0.15931461  0.50172484    -0.79900
C293        C  0.37585790  0.14139596  0.90493051    -0.02000
C294        C  0.36101622  0.16014461  0.93203277     0.07700
C295        C  0.33407039  0.17231509  0.92318156    -0.02100
C296        C  0.32214577  0.16615059  0.88719430    -0.02100
C297        C  0.33740594  0.14839202  0.85946361     0.07800
C298        C  0.36445595  0.13625884  0.86839605    -0.02300
Br299      Br  0.38593277  0.11206151  0.83117293    -0.00800
Br300      Br  0.41115982  0.12115459  0.91887470    -0.00900
Br301      Br  0.28561515  0.18439433  0.87526631    -0.00900
Br302      Br  0.31399832  0.19910115  0.95962177    -0.00800
C303        C  0.34403385  0.18476249  0.58840418    -0.02000
C304        C  0.36180189  0.16111411  0.57104534     0.07700
C305        C  0.36638789  0.12948816  0.58804132    -0.02100
C306        C  0.35396753  0.12204780  0.62306325    -0.02100
C307        C  0.33658917  0.14604321  0.64063036     0.07800
C308        C  0.33130738  0.17713773  0.62298930    -0.02300
Br309      Br  0.30575992  0.20879287  0.64577546    -0.00800
Br310      Br  0.33656101  0.22736814  0.56434238    -0.00900
Br311      Br  0.36145043  0.07963278  0.64765888    -0.00900
Br312      Br  0.38980773  0.09663709  0.56340266    -0.00800
C313        C  0.26987715  0.96826943  0.73031675    -0.02000
C314        C  0.28735894  0.95059796  0.75568190     0.07700
C315        C  0.30634758  0.96826944  0.77939299    -0.02100
C316        C  0.30783787  0.00359687  0.77781514    -0.02100
C317        C  0.29016205  0.02129348  0.75271410     0.07800
C318        C  0.27085000  0.00367765  0.72939842    -0.02300
Br319      Br  0.24616494  0.02778692  0.69544132    -0.00800
Br320      Br  0.24599010  0.94403118  0.69490107    -0.00900
Br321      Br  0.33279693  0.02775694  0.81205974    -0.00900
Br322      Br  0.32941857  0.94432989  0.81546810    -0.00800
C323        C  0.22986516  0.83308856  0.93296685    -0.02000
C324        C  0.22539066  0.79904540  0.94268894     0.07700
C325        C  0.23192072  0.77308719  0.91670057    -0.02100
C326        C  0.24244010  0.78122045  0.88088530    -0.02100
C327        C  0.24698299  0.81523684  0.87126489     0.07800
C328        C  0.24062708  0.84113847  0.89727474    -0.02300
Br329      Br  0.24453648  0.88783482  0.88283074    -0.00800
Br330      Br  0.21961435  0.86893373  0.96741882    -0.00900
Br331      Br  0.25103974  0.74568265  0.84527017    -0.00900
Br332      Br  0.22754469  0.72623265  0.93054728    -0.00800
C333        C  0.24938833  0.79055952  0.59338072    -0.02000
C334        C  0.22335418  0.80366192  0.58179640     0.07700
C335        C  0.20789052  0.82439499  0.60645171    -0.02100
C336        C  0.21872278  0.83256700  0.64247326    -0.02100
C337        C  0.24457362  0.81906291  0.65430751     0.07800
C338        C  0.25971772  0.79767991  0.62990436    -0.02300
Br339      Br  0.29348168  0.77574856  0.64741393    -0.00800
Br340      Br  0.27020295  0.76124699  0.56008632    -0.00900
Br341      Br  0.19862542  0.86331112  0.67484129    -0.00900
Br342      Br  0.17198804  0.84202828  0.59071732    -0.00800
C343        C  0.34948475  0.74171129  0.76426253    -0.02000
C344        C  0.35292167  0.77630604  0.75575225     0.07700
C345        C  0.37958544  0.78885006  0.74587403    -0.02100
C346        C  0.40286302  0.76736473  0.74674723    -0.02100
C347        C  0.39921858  0.73290108  0.75442891     0.07800
C348        C  0.37258616  0.71997410  0.76294035    -0.02300
Br349      Br  0.36794699  0.67253856  0.77361866    -0.00800
Br350      Br  0.31370739  0.72398577  0.78004695    -0.00900
Br351      Br  0.44011245  0.78544571  0.74034055    -0.00900
Br352      Br  0.38433651  0.83470318  0.72876263    -0.00800
C353        C  0.48230782  0.23723192  0.49427012    -0.02000
C354        C  0.47704658  0.27226896  0.49847224     0.07700
C355        C  0.44931207  0.28333517  0.50463405    -0.02100
C356        C  0.42707280  0.25986145  0.50453228    -0.02100
C357        C  0.43250396  0.22507970  0.50120976     0.07800
C358        C  0.46012886  0.21376714  0.49655415    -0.02300
Br359      Br  0.46745936  0.16593183  0.99348239    -0.00800
Br360      Br  0.51954356  0.22082760  0.98367079    -0.00900
Br361      Br  0.38890821  0.27534463  0.50780712    -0.00900
Br362      Br  0.44162667  0.33010284  0.51653612    -0.00800
C363        C  0.10128576  0.73395546  0.00051771    -0.02000
C364        C  0.10362428  0.69989615  0.51218039     0.07700
C365        C  0.12985636  0.68760137  0.52483514    -0.02100
C366        C  0.15360368  0.70862094  0.52408779    -0.02100
C367        C  0.15113987  0.74213392  0.51177275     0.07800
C368        C  0.12509959  0.75490958  0.00013810    -0.02300
Br369      Br  0.12221213  0.80134026  0.98394437    -0.00800
Br370      Br  0.06591386  0.75250812  0.98421337    -0.00900
Br371      Br  0.18994042  0.69131910  0.53858609    -0.00900
Br372      Br  0.13332990  0.64293548  0.54598019    -0.00800
C373        C  0.98336999  0.69919239  0.84925043    -0.02000
C374        C  0.96972777  0.67370342  0.82793888     0.07700
C375        C  0.96539344  0.64157673  0.84360621    -0.02100
C376        C  0.97403217  0.63515964  0.88103029    -0.02100
C377        C  0.98875176  0.66014591  0.90172957     0.07800
C378        C  0.99294799  0.69230621  0.88610569    -0.02300
Br379      Br  0.01118963  0.72706016  0.91574350    -0.00800
Br380      Br  0.99023492  0.74294451  0.82719765    -0.00900
Br381      Br  0.96449218  0.59295111  0.90466986    -0.00900
Br382      Br  0.44813333  0.60636155  0.81341569    -0.00800
C383        C  0.96641307  0.64538840  0.62410386    -0.02000
C384        C  0.99546381  0.64904242  0.61877994     0.07700
C385        C  0.01261247  0.66076602  0.64891536    -0.02100
C386        C  0.00053157  0.67077769  0.68340339    -0.02100
C387        C  0.97127818  0.66792265  0.68848439     0.07800
C388        C  0.45433783  0.65471039  0.65876819    -0.02300
Br389      Br  0.41454084  0.64829287  0.66535121    -0.00800
Br390      Br  0.44324584  0.62584270  0.58438123    -0.00900
Br391      Br  0.02410586  0.69122582  0.72212587    -0.00900
Br392      Br  0.05262225  0.66473378  0.64262661    -0.00800
C393        C  0.05339329  0.50935690  0.96915220    -0.02000
C394        C  0.03555746  0.52454688  0.99572743     0.07700
C395        C  0.01932429  0.50426651  0.51968775    -0.02100
C396        C  0.02098696  0.46889791  0.51736722    -0.02100
C397        C  0.03915273  0.45342657  0.99108038     0.07800
C398        C  0.05545615  0.47394426  0.96702997    -0.02300
Br399      Br  0.08035712  0.45423290  0.93032155    -0.00800
Br400      Br  0.07416674  0.53708216  0.93441490    -0.00900
Br401      Br  0.49980785  0.44233434  0.55287970    -0.00900
Br402      Br  0.49628122  0.52495102  0.55795399    -0.00800
C403        C  0.07931056  0.28314759  0.82587181    -0.02000
C404        C  0.10561745  0.29563098  0.81470455     0.07700
C405        C  0.12148335  0.31592332  0.83990971    -0.02100
C406        C  0.11128869  0.32347957  0.87616584    -0.02100
C407        C  0.08465514  0.31172083  0.88703308     0.07800
C408        C  0.06883511  0.29114145  0.86190620    -0.02300
Br409      Br  0.03348947  0.27206678  0.87763310    -0.00800
Br410      Br  0.05780732  0.25422345  0.79256525    -0.00900
Br411      Br  0.13361352  0.35112990  0.91007385    -0.00900
Br412      Br  0.15643149  0.33540648  0.82382775    -0.00800
C413        C  0.11002238  0.33619007  0.61659512    -0.02000
C414        C  0.08245255  0.32709480  0.60584328     0.07700
C415        C  0.06579270  0.30832791  0.63100013    -0.02100
C416        C  0.07720655  0.29698107  0.66546421    -0.02100
C417        C  0.10508285  0.30494334  0.67559927     0.07800
C418        C  0.12133712  0.32506915  0.65133047    -0.02300
Br419      Br  0.15891742  0.33818085  0.66602670    -0.00800
Br420      Br  0.13178803  0.36550987  0.58481557    -0.00900
Br421      Br  0.05522218  0.26771531  0.69679168    -0.00900
Br422      Br  0.52773904  0.29592413  0.61758725    -0.00800
C423        C  0.22655216  0.22875864  0.75563043    -0.02000
C424        C  0.22410692  0.19485993  0.74300997     0.07700
C425        C  0.19788161  0.18290140  0.72913016    -0.02100
C426        C  0.17448429  0.20444500  0.72875582    -0.02100
C427        C  0.17730990  0.23825993  0.74057655     0.07800
C428        C  0.20350784  0.25059693  0.75298377    -0.02300
Br429      Br  0.20816435  0.29789404  0.76477388    -0.00800
Br430      Br  0.26050945  0.24511920  0.77990499    -0.00900
Br431      Br  0.13812956  0.18764523  0.71296078    -0.00900
Br432      Br  0.19356536  0.13752152  0.70942422    -0.00800
C433        C  0.61747294  0.29156397  0.21103017     0.80100
N434        N  0.60569885  0.29876558  0.24502978    -0.78200
C435        C  0.61732962  0.28661331  0.27749891     0.82500
N436        N  0.64075951  0.26749165  0.27580343    -0.78200
C437        C  0.65250701  0.26009785  0.24199949     0.82600
N438        N  0.64076005  0.27208080  0.20960696    -0.79900
O439        O  0.49688436  0.65614566  0.05167463    -0.57900
C440        C  0.50249174  0.65156438  0.43775275     0.74700
O441        O  0.58077418  0.64679166  0.99943918    -0.59100
C442        C  0.50741568  0.64279591  0.08095300     0.74700
C443        C  0.53415110  0.56161041  0.49914868     0.77100
Cd444      Cd  0.53073172  0.63340995  0.50693697     1.37500
O445        O  0.49038570  0.65466350  0.46922904    -0.57900
O446        O  0.51097109  0.57691415  0.99860711    -0.56700
C447        C  0.57896905  0.67711866  0.01057652     0.77000
O448        O  0.55596244  0.57956450  0.00341230    -0.59100
O449        O  0.52735341  0.64084956  0.43840301    -0.57600
O450        O  0.52863333  0.62429713  0.07607753    -0.57600
O451        O  0.55489337  0.68695367  0.51997632    -0.56700
O452        O  0.58502226  0.32767318  0.03792892    -0.57900
C453        C  0.57249980  0.32248440  0.42347256     0.74700
O454        O  0.99797257  0.32543558  0.98081851    -0.59100
C455        C  0.57149613  0.33495559  0.06754289     0.74700
C456        C  0.54174557  0.41611209  0.49007354     0.77100
Cd457      Cd  0.54708232  0.34375783  0.49331444     1.37500
O458        O  0.58566795  0.32028180  0.45464784    -0.57900
O459        O  0.56512942  0.40170715  0.48632209    -0.56700
C460        C  0.00045935  0.29703894  0.99673562     0.77000
O461        O  0.02078552  0.39686359  0.99400327    -0.59100
O462        O  0.54812192  0.33462054  0.42486135    -0.57600
O463        O  0.54754300  0.34782489  0.06264249    -0.57600
O464        O  0.02420305  0.29080880  0.51106525    -0.56700
C465        C  0.95831238  0.67951642  0.22423105     0.80100
N466        N  0.93560299  0.70004161  0.22304535    -0.78200
C467        C  0.92359086  0.71073449  0.25554518     0.82500
N468        N  0.93466372  0.70181951  0.28935360    -0.78200
C469        C  0.95752480  0.68181842  0.29087623     0.82600
N470        N  0.46921001  0.67034987  0.25837310    -0.79900
C471        C  0.71109476  0.79318925  0.04535775     0.80500
N472        N  0.72367557  0.80115073  0.01227941    -0.78200
C473        C  0.71217113  0.79062023  0.47887349     0.82500
N474        N  0.68822714  0.77209954  0.47875451    -0.78200
C475        C  0.67590828  0.76391520  0.01177512     0.82600
N476        N  0.68737387  0.77436952  0.04499974    -0.79900
O477        O  0.74231026  0.82505950  0.22176884    -0.57900
C478        C  0.75865184  0.82390753  0.33422852     0.74700
O479        O  0.83091831  0.82839320  0.27283539    -0.59100
C480        C  0.75633514  0.82780077  0.19166287     0.74700
C481        C  0.78538742  0.91372645  0.25808285     0.77100
Cd482      Cd  0.78159944  0.84224707  0.26270546     1.37500
O483        O  0.74646322  0.81569107  0.30353954    -0.57900
O484        O  0.76218982  0.89904623  0.26318417    -0.56700
C485        C  0.82883285  0.79924990  0.25810669     0.77000
O486        O  0.80683070  0.89529242  0.25552611    -0.59100
O487        O  0.78129418  0.84032701  0.33174148    -0.57600
O488        O  0.78132981  0.83807076  0.19493150    -0.57600
O489        O  0.80491759  0.79047218  0.24593268    -0.56700
O490        O  0.83698797  0.14828698  0.29123318    -0.57900
C491        C  0.82394591  0.13922066  0.17760289     0.74700
O492        O  0.77102485  0.07684761  0.25346073    -0.59100
C493        C  0.82454355  0.14189051  0.32179127     0.74700
C494        C  0.74886308  0.17231378  0.24458829     0.77100
Cd495      Cd  0.79756537  0.12929306  0.24925924     1.37500
O496        O  0.83214592  0.15468571  0.20720874    -0.57900
O497        O  0.77328717  0.18296232  0.23786113    -0.56700
C498        C  0.79231438  0.05814001  0.25064574     0.77000
O499        O  0.74690524  0.14149305  0.25316071    -0.59100
O500        O  0.80374335  0.11872641  0.18099594    -0.57600
O501        O  0.80009390  0.12994736  0.31857423    -0.57600
O502        O  0.81574098  0.07252956  0.24636899    -0.56700
C503        C  0.87528580  0.16970160  0.03502333     0.80100
N504        N  0.89787806  0.19071727  0.03491387    -0.78200
C505        C  0.90908859  0.20069514  0.00160900     0.82500
N506        N  0.89733363  0.19013073  0.46846218    -0.78200
C507        C  0.87461077  0.16940386  0.46837380     0.82600
N508        N  0.86353362  0.15931441  0.00172609    -0.79900
C509        C  0.87585961  0.14140508  0.40492495    -0.02000
C510        C  0.86101416  0.16014543  0.43203069     0.07700
C511        C  0.83406509  0.17230725  0.42318202    -0.02100
C512        C  0.82214112  0.16614255  0.38719437    -0.02100
C513        C  0.83740485  0.14839243  0.35946052     0.07800
C514        C  0.86445798  0.13626776  0.36839035    -0.02300
Br515      Br  0.88593951  0.11208098  0.33116372    -0.00800
Br516      Br  0.91116681  0.12117475  0.41886441    -0.00900
Br517      Br  0.78560574  0.18437479  0.37527046    -0.00900
Br518      Br  0.81398743  0.19908311  0.45962569    -0.00800
C519        C  0.84403359  0.18476125  0.08840196    -0.02000
C520        C  0.86180529  0.16111510  0.07104621     0.07700
C521        C  0.86639631  0.12949184  0.08804590    -0.02100
C522        C  0.85397517  0.12205091  0.12306704    -0.02100
C523        C  0.83659102  0.14604293  0.14062923     0.07800
C524        C  0.83130603  0.17713558  0.12298595    -0.02300
Br525      Br  0.80575508  0.20878809  0.14576967    -0.00800
Br526      Br  0.83655973  0.22736642  0.06433968    -0.00900
Br527      Br  0.86146456  0.07964006  0.14766836    -0.00900
Br528      Br  0.88982523  0.09664607  0.06341416    -0.00800
C529        C  0.76987674  0.96826829  0.23031659    -0.02000
C530        C  0.78735864  0.95059736  0.25568208     0.07700
C531        C  0.80634859  0.96826932  0.27939086    -0.02100
C532        C  0.80783933  0.00359673  0.27781136    -0.02100
C533        C  0.79016247  0.02129294  0.25271119     0.07800
C534        C  0.77085005  0.00367652  0.22939653    -0.02300
Br535      Br  0.74616640  0.02778471  0.19543647    -0.00800
Br536      Br  0.74598952  0.94402903  0.19490184    -0.00900
Br537      Br  0.83280190  0.02775699  0.31205119    -0.00900
Br538      Br  0.82942191  0.94433045  0.31546376    -0.00800
C539        C  0.72986448  0.83308717  0.43296718    -0.02000
C540        C  0.72538955  0.79904406  0.44268937     0.07700
C541        C  0.73191848  0.77308575  0.41670048    -0.02100
C542        C  0.74243744  0.78121885  0.38088497    -0.02100
C543        C  0.74698089  0.81523513  0.37126470     0.07800
C544        C  0.74062590  0.84113686  0.39727476    -0.02300
Br545      Br  0.74453588  0.88783312  0.38283038    -0.00800
Br546      Br  0.71961461  0.86893257  0.46741929    -0.00900
Br547      Br  0.75103600  0.74568120  0.34526921    -0.00900
Br548      Br  0.72754159  0.72623122  0.43054687    -0.00800
C549        C  0.74938857  0.79056087  0.09337945    -0.02000
C550        C  0.72335420  0.80366280  0.08179534     0.07700
C551        C  0.70789027  0.82439518  0.10645096    -0.02100
C552        C  0.71872218  0.83256656  0.14247285    -0.02100
C553        C  0.74457323  0.81906296  0.15430695     0.07800
C554        C  0.75971788  0.79768105  0.12990319    -0.02300
Br555      Br  0.79348278  0.77575114  0.14741159    -0.00800
Br556      Br  0.77020363  0.76124934  0.06008450    -0.00900
Br557      Br  0.69862398  0.86330923  0.17484149    -0.00900
Br558      Br  0.67198806  0.84202888  0.09071610    -0.00800
C559        C  0.84948396  0.74170907  0.26426441    -0.02000
C560        C  0.85292008  0.77630383  0.25575352     0.07700
C561        C  0.87958332  0.78884840  0.24587378    -0.02100
C562        C  0.90286140  0.76736387  0.24674660    -0.02100
C563        C  0.89921797  0.73290035  0.25442977     0.07800
C564        C  0.87258595  0.71997268  0.26294222    -0.02300
Br565      Br  0.86794827  0.67253713  0.27362140    -0.00800
Br566      Br  0.81370686  0.72398240  0.28004880    -0.00900
Br567      Br  0.94011019  0.78544580  0.24033733    -0.00900
Br568      Br  0.88433279  0.83470127  0.22876081    -0.00800
C569        C  0.98230866  0.23723405  0.99426904    -0.02000
C570        C  0.97704643  0.27227088  0.99847122     0.07700
C571        C  0.94931171  0.28333609  0.00463339    -0.02100
C572        C  0.92707309  0.25986150  0.00453186    -0.02100
C573        C  0.93250545  0.22508012  0.00120917     0.07800
C574        C  0.96013052  0.21376847  0.99655426    -0.02300
Br575      Br  0.96745620  0.16593038  0.49347612    -0.00800
Br576      Br  0.01954269  0.22082420  0.48367237    -0.00900
Br577      Br  0.88890790  0.27534251  0.00780895    -0.00900
Br578      Br  0.94162506  0.33010323  0.01653600    -0.00800
C579        C  0.60128537  0.73395519  0.50051783    -0.02000
C580        C  0.60362530  0.69989638  0.01218021     0.07700
C581        C  0.62985776  0.68760197  0.02483366    -0.02100
C582        C  0.65360477  0.70862203  0.02408562    -0.02100
C583        C  0.65114023  0.74213510  0.01177099     0.07800
C584        C  0.62509951  0.75490877  0.50013847    -0.02300
Br585      Br  0.62221319  0.80133887  0.48394258    -0.00800
Br586      Br  0.56591390  0.75250895  0.48421326    -0.00900
Br587      Br  0.68994191  0.69132093  0.03858315    -0.00900
Br588      Br  0.63333203  0.64293604  0.04597810    -0.00800
C589        C  0.48337125  0.69919135  0.34924961    -0.02000
C590        C  0.46972822  0.67370279  0.32793835     0.07700
C591        C  0.46539273  0.64157645  0.34360614    -0.02100
C592        C  0.47403157  0.63515925  0.38103018    -0.02100
C593        C  0.48875194  0.66014506  0.40172903     0.07800
C594        C  0.49294905  0.69230507  0.38610494    -0.02300
Br595      Br  0.51119174  0.72705846  0.41574253    -0.00800
Br596      Br  0.49023702  0.74294332  0.32719693    -0.00900
Br597      Br  0.46449032  0.59295146  0.40467058    -0.00900
Br598      Br  0.94813234  0.60636166  0.31341559    -0.00800
C599        C  0.46641338  0.64538974  0.12410310    -0.02000
C600        C  0.49546416  0.64904366  0.11877961     0.07700
C601        C  0.51261250  0.66076812  0.14891491    -0.02100
C602        C  0.50053126  0.67077988  0.18340272    -0.02100
C603        C  0.47127793  0.66792385  0.18848371     0.07800
C604        C  0.95433802  0.65471178  0.15876747    -0.02300
Br605      Br  0.91454071  0.64829521  0.16534940    -0.00800
Br606      Br  0.94324689  0.62584429  0.08438025    -0.00900
Br607      Br  0.52410487  0.69122994  0.22212465    -0.00900
Br608      Br  0.55262226  0.66473713  0.14262620    -0.00800
C609        C  0.55339100  0.50935672  0.46915258    -0.02000
C610        C  0.53555601  0.52454650  0.49572890     0.07700
C611        C  0.51932495  0.50426704  0.01968578    -0.02100
C612        C  0.52098784  0.46889846  0.01736562    -0.02100
C613        C  0.53915135  0.45342623  0.49108143     0.07800
C614        C  0.55545400  0.47394409  0.46703022    -0.02300
Br615      Br  0.58035342  0.45423293  0.43032001    -0.00800
Br616      Br  0.57416280  0.53708223  0.43441365    -0.00900
Br617      Br  0.99980890  0.44233540  0.05287848    -0.00900
Br618      Br  0.99628040  0.52495184  0.05794993    -0.00800
C619        C  0.57930965  0.28314779  0.32587330    -0.02000
C620        C  0.60561657  0.29563057  0.31470523     0.07700
C621        C  0.62148315  0.31592260  0.33990999    -0.02100
C622        C  0.61128862  0.32348016  0.37616588    -0.02100
C623        C  0.58465495  0.31172248  0.38703363     0.07800
C624        C  0.56883436  0.29114306  0.36190748    -0.02300
Br625      Br  0.53348791  0.27207091  0.37763521    -0.00800
Br626      Br  0.55780653  0.25422181  0.29256872    -0.00900
Br627      Br  0.63361340  0.35113126  0.41007291    -0.00900
Br628      Br  0.65643259  0.33540257  0.32382822    -0.00800
C629        C  0.61002284  0.33619139  0.11659394    -0.02000
C630        C  0.58245310  0.32709579  0.10584187     0.07700
C631        C  0.56579274  0.30833049  0.13099959    -0.02100
C632        C  0.57720615  0.29698486  0.16546455    -0.02100
C633        C  0.60508271  0.30494635  0.17559946     0.07800
C634        C  0.62133731  0.32507126  0.15132991    -0.02300
Br635      Br  0.65891745  0.33818370  0.16602630    -0.00800
Br636      Br  0.63178826  0.36551166  0.08481436    -0.00900
Br637      Br  0.55522018  0.26772246  0.19679391    -0.00900
Br638      Br  0.02773888  0.29592696  0.11758663    -0.00800
C639        C  0.72655378  0.22876268  0.25562235    -0.02000
C640        C  0.72410708  0.19486211  0.24300821     0.07700
C641        C  0.69788008  0.18290199  0.22913573    -0.02100
C642        C  0.67448293  0.20444586  0.22876193    -0.02100
C643        C  0.67730990  0.23826229  0.24057635     0.07800
C644        C  0.70350907  0.25060064  0.25297685    -0.02300
Br645      Br  0.70816617  0.29789891  0.26476049    -0.00800
Br646      Br  0.76051395  0.24512699  0.27988650    -0.00900
Br647      Br  0.63812658  0.18764491  0.21297540    -0.00900
Br648      Br  0.69356071  0.13751941  0.20943881    -0.00800
C649        C  0.61747298  0.29156124  0.71102985     0.80100
N650        N  0.60569967  0.29876455  0.74502933    -0.78200
C651        C  0.61733077  0.28661355  0.77749869     0.82500
N652        N  0.64076044  0.26749124  0.77580344    -0.78200
C653        C  0.65250695  0.26009548  0.74199953     0.82600
N654        N  0.64075962  0.27207723  0.70960667    -0.79900
O655        O  0.49688231  0.65614316  0.55167459    -0.57900
C656        C  0.50249223  0.65156523  0.93775300     0.74700
O657        O  0.58077329  0.64679078  0.49944162    -0.59100
C658        C  0.50741498  0.64279500  0.58095301     0.74700
C659        C  0.53415266  0.56161079  0.99914765     0.77100
Cd660      Cd  0.53073274  0.63341028  0.00693692     1.37500
O661        O  0.49038530  0.65466040  0.96922911    -0.57900
O662        O  0.51096944  0.57691363  0.49860983    -0.56700
C663        C  0.57896785  0.67711858  0.51057600     0.77000
O664        O  0.55596100  0.57956429  0.50341125    -0.59100
O665        O  0.52735511  0.64085436  0.93840337    -0.57600
O666        O  0.52863374  0.62429817  0.57607742    -0.57600
O667        O  0.55489501  0.68695284  0.01998005    -0.56700
O668        O  0.58502148  0.32767259  0.53793068    -0.57900
C669        C  0.57249941  0.32248250  0.92347172     0.74700
O670        O  0.99797311  0.32543330  0.48081919    -0.59100
C671        C  0.57149551  0.33495541  0.56754470     0.74700
C672        C  0.54174645  0.41611245  0.99007221     0.77100
Cd673      Cd  0.54708240  0.34375843  0.99331288     1.37500
O674        O  0.58566823  0.32028317  0.95464679    -0.57900
O675        O  0.56512996  0.40170707  0.98631911    -0.56700
C676        C  0.00045992  0.29703660  0.49673609     0.77000
O677        O  0.02078464  0.39686291  0.49400322    -0.59100
O678        O  0.54812058  0.33461596  0.92486037    -0.57600
O679        O  0.54754265  0.34782545  0.56264449    -0.57600
O680        O  0.02420241  0.29081099  0.01106486    -0.56700
C681        C  0.95831252  0.67951582  0.72423139     0.80100
N682        N  0.93560314  0.70004135  0.72304511    -0.78200
C683        C  0.92359094  0.71073446  0.75554473     0.82500
N684        N  0.93466340  0.70181977  0.78935332    -0.78200
C685        C  0.95752445  0.68181842  0.79087652     0.82600
N686        N  0.46921003  0.67034960  0.75837358    -0.79900
C687        C  0.71109455  0.79318816  0.54535870     0.80500
N688        N  0.72367518  0.80114952  0.51228015    -0.78200
C689        C  0.71217167  0.79062157  0.97887257     0.82500
N690        N  0.68822762  0.77210110  0.97875312    -0.78200
C691        C  0.67590816  0.76391358  0.51177655     0.82600
N692        N  0.68737381  0.77436815  0.54500110    -0.79900
O693        O  0.74231133  0.82505992  0.72176914    -0.57900
C694        C  0.75865382  0.82390951  0.83422841     0.74700
O695        O  0.83092019  0.82839587  0.77283328    -0.59100
C696        C  0.75633580  0.82780126  0.69166280     0.74700
C697        C  0.78538794  0.91372725  0.75808111     0.77100
Cd698      Cd  0.78160078  0.84224847  0.76270449     1.37500
O699        O  0.74646644  0.81569003  0.80353952    -0.57900
O700        O  0.76219041  0.89904665  0.76318144    -0.56700
C701        C  0.82883459  0.79925240  0.75810507     0.77000
O702        O  0.80683161  0.89529374  0.75552506    -0.59100
O703        O  0.78129467  0.84033191  0.83174097    -0.57600
O704        O  0.78133032  0.83807187  0.69493065    -0.57600
O705        O  0.80491920  0.79047458  0.74593164    -0.56700
O706        O  0.83699046  0.14828083  0.79123624    -0.57900
C707        C  0.82394537  0.13922139  0.67760518     0.74700
O708        O  0.77102497  0.07684837  0.75346532    -0.59100
C709        C  0.82454429  0.14189016  0.82179449     0.74700
C710        C  0.74886302  0.17231208  0.74459021     0.77100
Cd711      Cd  0.79756589  0.12929303  0.74926272     1.37500
O712        O  0.83213930  0.15469541  0.70720825    -0.57900
O713        O  0.77328709  0.18296144  0.73786415    -0.56700
C714        C  0.79231429  0.05814051  0.75064908     0.77000
O715        O  0.74690529  0.14149121  0.75316186    -0.59100
O716        O  0.80374970  0.11871782  0.68100191    -0.57600
O717        O  0.80009268  0.12995285  0.81857798    -0.57600
O718        O  0.81574104  0.07252964  0.74637177    -0.56700
C719        C  0.87528311  0.16970094  0.53502238     0.80100
N720        N  0.89787557  0.19071663  0.53491356    -0.78200
C721        C  0.90908620  0.20069537  0.50160887     0.82500
N722        N  0.89733634  0.19012938  0.96846247    -0.78200
C723        C  0.87461363  0.16940249  0.96837493     0.82600
N724        N  0.86353100  0.15931463  0.50172477    -0.79900
C725        C  0.87585793  0.14139611  0.90493026    -0.02000
C726        C  0.86101615  0.16014459  0.93203258     0.07700
C727        C  0.83407029  0.17231487  0.92318131    -0.02100
C728        C  0.82214575  0.16615035  0.88719402    -0.02100
C729        C  0.83740602  0.14839190  0.85946336     0.07800
C730        C  0.86445604  0.13625890  0.86839581    -0.02300
Br731      Br  0.88593290  0.11206175  0.83117265    -0.00800
Br732      Br  0.91115977  0.12115483  0.91887444    -0.00900
Br733      Br  0.78561506  0.18439383  0.87526603    -0.00900
Br734      Br  0.81399801  0.19910065  0.95962149    -0.00800
C735        C  0.84403366  0.18476222  0.58840375    -0.02000
C736        C  0.86180204  0.16111407  0.57104519     0.07700
C737        C  0.86638840  0.12948830  0.58804142    -0.02100
C738        C  0.85396811  0.12204795  0.62306341    -0.02100
C739        C  0.83658948  0.14604320  0.64063031     0.07800
C740        C  0.83130729  0.17713750  0.62298895    -0.02300
Br741      Br  0.80575939  0.20879236  0.64577463    -0.00800
Br742      Br  0.83656049  0.22736763  0.56434154    -0.00900
Br743      Br  0.86145138  0.07963306  0.64765917    -0.00900
Br744      Br  0.88980889  0.09663760  0.56340323    -0.00800
C745        C  0.76987705  0.96826955  0.73031645    -0.02000
C746        C  0.78735884  0.95059810  0.75568160     0.07700
C747        C  0.80634752  0.96826957  0.77939263    -0.02100
C748        C  0.80783790  0.00359699  0.77781466    -0.02100
C749        C  0.79016200  0.02129361  0.75271374     0.07800
C750        C  0.77084990  0.00367779  0.72939813    -0.02300
Br751      Br  0.74616485  0.02778715  0.69544104    -0.00800
Br752      Br  0.74599001  0.94403120  0.69490079    -0.00900
Br753      Br  0.83279705  0.02775696  0.81205918    -0.00900
Br754      Br  0.82941847  0.94433012  0.81546782    -0.00800
C755        C  0.72986525  0.83308869  0.93296667    -0.02000
C756        C  0.72539063  0.79904556  0.94268881     0.07700
C757        C  0.73192068  0.77308725  0.91670044    -0.02100
C758        C  0.74244017  0.78122050  0.88088523    -0.02100
C759        C  0.74698306  0.81523689  0.87126476     0.07800
C760        C  0.74062720  0.84113859  0.89727460    -0.02300
Br761      Br  0.74453659  0.88783502  0.88283047    -0.00800
Br762      Br  0.71961447  0.86893397  0.96741854    -0.00900
Br763      Br  0.75103986  0.74568265  0.84527017    -0.00900
Br764      Br  0.72754480  0.72623267  0.93054728    -0.00800
C765        C  0.74938819  0.79055954  0.59338050    -0.02000
C766        C  0.72335409  0.80366203  0.58179614     0.07700
C767        C  0.70789054  0.82439527  0.60645138    -0.02100
C768        C  0.71872281  0.83256723  0.64247295    -0.02100
C769        C  0.74457351  0.81906292  0.65430731     0.07800
C770        C  0.75971757  0.79767986  0.62990416    -0.02300
Br771      Br  0.79348139  0.77574830  0.64741367    -0.00800
Br772      Br  0.77020267  0.76124698  0.56008603    -0.00900
Br773      Br  0.69862553  0.86331138  0.67484100    -0.00900
Br774      Br  0.67198817  0.84202878  0.59071678    -0.00800
C775        C  0.84948461  0.74171120  0.76426253    -0.02000
C776        C  0.85292156  0.77630598  0.75575229     0.07700
C777        C  0.87958533  0.78884996  0.74587399    -0.02100
C778        C  0.90286291  0.76736467  0.74674707    -0.02100
C779        C  0.89921847  0.73290106  0.75442886     0.07800
C780        C  0.87258606  0.71997407  0.76294031    -0.02300
Br781      Br  0.86794689  0.67253853  0.77361839    -0.00800
Br782      Br  0.81370712  0.72398554  0.78004666    -0.00900
Br783      Br  0.94011235  0.78544570  0.74034027    -0.00900
Br784      Br  0.88433641  0.83470296  0.72876234    -0.00800
C785        C  0.98230793  0.23723186  0.49426954    -0.02000
C786        C  0.97704666  0.27226887  0.49847197     0.07700
C787        C  0.94931217  0.28333503  0.50463385    -0.02100
C788        C  0.92707290  0.25986130  0.50453219    -0.02100
C789        C  0.93250409  0.22507961  0.50120945     0.07800
C790        C  0.96012894  0.21376708  0.49655354    -0.02300
Br791      Br  0.96745927  0.16593182  0.99348182    -0.00800
Br792      Br  0.01954342  0.22082760  0.98366995    -0.00900
Br793      Br  0.88890832  0.27534439  0.50780713    -0.00900
Br794      Br  0.94162677  0.33010262  0.51653613    -0.00800
C795        C  0.60128568  0.73395554  0.00051803    -0.02000
C796        C  0.60362434  0.69989601  0.51218028     0.07700
C797        C  0.62985651  0.68760119  0.52483443    -0.02100
C798        C  0.65360375  0.70862089  0.52408713    -0.02100
C799        C  0.65113981  0.74213394  0.51177248     0.07800
C800        C  0.62509948  0.75490970  0.00013834    -0.02300
Br801      Br  0.62221185  0.80134049  0.98394495    -0.00800
Br802      Br  0.56591358  0.75250836  0.98421451    -0.00900
Br803      Br  0.68994055  0.69131907  0.53858470    -0.00900
Br804      Br  0.63333023  0.64293518  0.54597880    -0.00800
C805        C  0.48337071  0.69919209  0.84924994    -0.02000
C806        C  0.46972797  0.67370331  0.82793870     0.07700
C807        C  0.46539315  0.64157681  0.84360630    -0.02100
C808        C  0.47403195  0.63515979  0.88103038    -0.02100
C809        C  0.48875206  0.66014579  0.90172936     0.07800
C810        C  0.49294875  0.69230588  0.88610519    -0.02300
Br811      Br  0.51119120  0.72705941  0.91574264    -0.00800
Br812      Br  0.49023626  0.74294398  0.82719680    -0.00900
Br813      Br  0.46449122  0.59295182  0.90467044    -0.00900
Br814      Br  0.94813448  0.60636127  0.81341512    -0.00800
C815        C  0.46641302  0.64538842  0.62410379    -0.02000
C816        C  0.49546375  0.64904242  0.61877989     0.07700
C817        C  0.51261243  0.66076605  0.64891523    -0.02100
C818        C  0.50053153  0.67077781  0.68340326    -0.02100
C819        C  0.47127818  0.66792265  0.68848429     0.07800
C820        C  0.95433788  0.65471039  0.65876821    -0.02300
Br821      Br  0.91454093  0.64829286  0.66535121    -0.00800
Br822      Br  0.94324594  0.62584270  0.58438123    -0.00900
Br823      Br  0.52410578  0.69122608  0.72212561    -0.00900
Br824      Br  0.55262217  0.66473403  0.64262634    -0.00800
C825        C  0.55339335  0.50935700  0.96915254    -0.02000
C826        C  0.53555749  0.52454689  0.99572774     0.07700
C827        C  0.51932430  0.50426652  0.51968788    -0.02100
C828        C  0.52098699  0.46889791  0.51736729    -0.02100
C829        C  0.53915270  0.45342659  0.99108044     0.07800
C830        C  0.55545622  0.47394437  0.96703018    -0.02300
Br831      Br  0.58035704  0.45423315  0.93032155    -0.00800
Br832      Br  0.57416665  0.53708241  0.93441518    -0.00900
Br833      Br  0.99980795  0.44233433  0.55287972    -0.00900
Br834      Br  0.99628112  0.52495102  0.55795372    -0.00800
C835        C  0.57931048  0.28314765  0.82587188    -0.02000
C836        C  0.60561740  0.29563092  0.81470458     0.07700
C837        C  0.62148332  0.31592330  0.83990969    -0.02100
C838        C  0.61128871  0.32347954  0.87616583    -0.02100
C839        C  0.58465516  0.31172085  0.88703311     0.07800
C840        C  0.56883503  0.29114158  0.86190624    -0.02300
Br841      Br  0.53348941  0.27206680  0.87763337    -0.00800
Br842      Br  0.55780722  0.25422344  0.79256550    -0.00900
Br843      Br  0.63361345  0.35112991  0.91007385    -0.00900
Br844      Br  0.65643141  0.33540648  0.82382773    -0.00800
C845        C  0.61002245  0.33619002  0.61659517    -0.02000
C846        C  0.58245257  0.32709492  0.60584336     0.07700
C847        C  0.56579265  0.30832813  0.63100029    -0.02100
C848        C  0.57720654  0.29698121  0.66546431    -0.02100
C849        C  0.60508284  0.30494337  0.67559936     0.07800
C850        C  0.62133717  0.32506909  0.65133054    -0.02300
Br851      Br  0.65891754  0.33818060  0.66602670    -0.00800
Br852      Br  0.63178833  0.36550961  0.58481556    -0.00900
Br853      Br  0.55522208  0.26771554  0.69679172    -0.00900
Br854      Br  0.02773913  0.29592386  0.61758698    -0.00800
C855        C  0.72655237  0.22875884  0.75563003    -0.02000
C856        C  0.72410706  0.19486015  0.74300972     0.07700
C857        C  0.69788169  0.18290158  0.72913017    -0.02100
C858        C  0.67448434  0.20444517  0.72875596    -0.02100
C859        C  0.67731001  0.23826009  0.74057666     0.07800
C860        C  0.70350803  0.25059716  0.75298357    -0.02300
Br861      Br  0.70816466  0.29789428  0.76477387    -0.00800
Br862      Br  0.76050980  0.24511944  0.77990415    -0.00900
Br863      Br  0.63812949  0.18764525  0.71296135    -0.00900
Br864      Br  0.69356546  0.13752173  0.70942448    -0.00800
loop_ 
_geom_bond_atom_site_label_1 
_geom_bond_atom_site_label_2 
_geom_bond_distance 
_geom_bond_site_symmetry_2 
_ccdc_geom_bond_type 
C1            N2   1.361       .  A
C1            N6   1.358       .  A
C1          C201   1.482       .  S
N2            C3   1.361       .  A
C3            N4   1.356       .  A
C3          C188   1.477       .  S
N4            C5   1.356       .  A
C5            N6   1.359       .  A
C5          C211   1.471       .  S
O7           C10   1.266   1_655  A
O7         Cd228   2.444   1_655  S
C8          C161   1.469   1_455  S
C8           O17   1.263       .  A
C8           O13   1.265   1_455  A
O9           C15   1.265   1_556  A
O9         Cd228   2.463   1_556  S
C10         C168   1.479   1_455  S
C10          O18   1.266       .  A
C11         C178   1.474       .  S
C11         O232   1.266       .  A
C11         O230   1.265       .  A
Cd12         O19   2.449       .  S
Cd12         O17   2.446       .  S
Cd12         O13   2.484   1_455  S
Cd12        O223   2.444   1_455  S
Cd12        O225   2.463       .  S
Cd12        O234   2.475       .  S
Cd12        O232   2.457       .  S
Cd12        O230   2.440       .  S
O14         C227   1.265       .  A
O14        Cd228   2.440   1_556  S
C15         C148   1.481       .  S
C15         O235   1.263       .  A
O16         C227   1.266   1_554  A
O16        Cd228   2.457       .  S
O18        Cd228   2.475       .  S
O19         C231   1.263       .  A
O20          C23   1.268       .  A
O20        Cd241   2.477   1_554  S
C21         C191   1.479       .  S
C21          O30   1.263       .  A
C21          O26   1.266       .  A
O22          C28   1.267       .  A
O22        Cd673   2.486       .  S
C23         C198   1.481       .  S
C23          O31   1.265       .  A
C24         C181   1.484       .  S
C24          O27   1.264       .  A
C24         O677   1.265       .  A
Cd25         O30   2.445       .  S
Cd25         O26   2.486       .  S
Cd25         O27   2.463       .  S
Cd25        O236   2.477       .  S
Cd25        O670   2.486   1_455  S
Cd25        O464   2.449       .  S
Cd25        O247   2.454       .  S
Cd25        O677   2.455       .  S
C28         C138   1.486       .  S
C28         O248   1.263   1_556  A
O29         C672   1.265       .  A
O29        Cd673   2.455       .  S
O31        Cd241   2.454   1_554  S
O32         C244   1.263       .  A
O32        Cd457   2.449       .  S
C33          N34   1.359       .  A
C33         N470   1.361       .  A
C33         C603   1.484       .  S
N34          C35   1.355       .  A
C35          N36   1.351       .  A
C35         C131   1.461       .  S
N36          C37   1.353       .  A
C37         N470   1.359       .  A
C37         C590   1.466       .  S
N38         C465   1.361       .  A
N38         C469   1.359       .  A
C39          N40   1.358       .  A
C39          N44   1.353       .  A
C39         C118   1.465       .  S
N40         C257   1.359   1_554  A
C41          N42   1.356       .  A
C41         N256   1.359       .  A
C41         C108   1.472       .  S
N42         C259   1.353       .  A
C43          N44   1.352       .  A
C43         N258   1.353   1_554  A
C43         C151   1.461       .  S
O45          C48   1.268       .  A
O45         Cd50   2.448       .  S
C46         C111   1.470       .  S
C46          O55   1.264       .  A
C46          O51   1.265       .  A
O47          C53   1.266       .  A
O47         Cd50   2.444       .  S
C48         C121   1.468       .  S
C48          O56   1.263       .  A
C49          C98   1.466       .  S
C49          O54   1.264       .  A
C49          O52   1.264       .  A
Cd50         O57   2.411       .  S
Cd50         O56   2.400       .  S
Cd50         O55   2.442       .  S
Cd50         O51   2.462       .  S
Cd50         O54   2.434       .  S
Cd50         O52   2.437       .  S
C53         C128   1.472       .  S
C53          O57   1.263       .  A
O58          C61   1.265       .  A
O58         Cd63   2.495       .  S
C59          C91   1.472       .  S
C59          O68   1.265       .  A
C59          O64   1.266       .  A
O60          C66   1.265       .  A
O60         Cd63   2.435       .  S
C61          C81   1.481       .  S
C61          O69   1.262       .  A
C62         C208   1.486       .  S
C62          O67   1.263       .  A
C62          O65   1.264       .  A
Cd63         O70   2.416       .  S
Cd63         O69   2.451       .  S
Cd63         O68   2.467       .  S
Cd63         O64   2.451       .  S
Cd63         O67   2.474       .  S
Cd63         O65   2.460       .  S
C66         C101   1.465       .  S
C66          O70   1.264       .  A
C71          N72   1.360       .  A
C71          N76   1.359       .  A
C71          C88   1.474       .  S
N72          C73   1.359       .  A
C73         N290   1.356   1_554  A
C73         C141   1.475       .  S
N74          C75   1.358       .  A
N74         C289   1.356       .  A
C75         N292   1.359       .  A
C75          C78   1.476       .  S
N76         C291   1.359   1_554  A
C77          C78   1.407       .  A
C77          C82   1.409       .  A
C77         Br84   1.931       .  S
C78          C79   1.409       .  A
C79          C80   1.407       .  A
C79         Br86   1.929       .  S
C80          C81   1.413       .  A
C80         Br85   1.935       .  S
C81          C82   1.414       .  A
C82         Br83   1.929       .  S
C87          C88   1.409       .  A
C87          C92   1.405       .  A
C87         Br94   1.928       .  S
C88          C89   1.410       .  A
C89          C90   1.411       .  A
C89         Br96   1.929       .  S
C90          C91   1.410       .  A
C90         Br95   1.930       .  S
C91          C92   1.407       .  A
C92         Br93   1.931       .  S
C97          C98   1.410       .  A
C97         C102   1.404   1_565  A
C97        Br104   1.932       .  S
C98          C99   1.409       .  A
C99         C100   1.402   1_565  A
C99        Br106   1.932       .  S
C100        C101   1.410       .  A
C100       Br105   1.935       .  S
C101        C102   1.410       .  A
C102       Br103   1.933       .  S
C107        C108   1.410       .  A
C107        C112   1.405       .  A
C107       Br114   1.932       .  S
C108        C109   1.412       .  A
C109        C110   1.406       .  A
C109       Br116   1.934       .  S
C110        C111   1.408       .  A
C110       Br115   1.930       .  S
C111        C112   1.409       .  A
C112       Br113   1.931       .  S
C117        C118   1.407       .  A
C117        C122   1.403       .  A
C117       Br124   1.933       .  S
C118        C119   1.410       .  A
C119        C120   1.404       .  A
C119       Br126   1.932       .  S
C120        C121   1.408       .  A
C120       Br125   1.931       .  S
C121        C122   1.412       .  A
C122       Br123   1.933       .  S
C127        C128   1.414       .  A
C127        C132   1.403       .  A
C127       Br134   1.934       .  S
C128        C129   1.413       .  A
C129        C130   1.403       .  A
C129       Br136   1.931       .  S
C130        C131   1.404       .  A
C130       Br135   1.931       .  S
C131        C132   1.405       .  A
C132       Br133   1.931       .  S
C137        C138   1.419       .  A
C137        C142   1.409       .  A
C137       Br360   1.935       .  S
C138        C139   1.416   1_556  A
C139        C140   1.409       .  A
C139       Br146   1.934       .  S
C140        C141   1.407       .  A
C140       Br145   1.930       .  S
C141        C142   1.406   1_554  A
C142       Br359   1.931       .  S
Br143       C358   1.931       .  S
Br144       C353   1.935       .  S
C147        C152   1.405       .  A
C147        C364   1.418       .  A
C147       Br154   1.929       .  S
C148        C149   1.415       .  A
C148        C363   1.418       .  A
C149        C150   1.405       .  A
C149       Br156   1.932       .  S
C150        C151   1.405       .  A
C150       Br155   1.934       .  S
C151        C368   1.403       .  A
C152        C367   1.403       .  A
C152       Br153   1.935       .  S
C157        C158   1.409       .  A
C157        C162   1.405       .  A
C157       Br164   1.933       .  S
C158        C469   1.466       .  S
C158        C159   1.407       .  A
C159        C160   1.406       .  A
C159       Br598   1.927       .  S
C160        C161   1.408       .  A
C160       Br165   1.929       .  S
C161        C162   1.406       .  A
C162       Br163   1.924   1_655  S
Br166       C591   1.927       .  S
C167        C168   1.409       .  A
C167        C604   1.407       .  A
C167       Br606   1.934       .  S
C168        C169   1.411   1_655  A
C169        C170   1.409       .  A
C169       Br176   1.932       .  S
C170        C171   1.415   1_455  A
C170       Br175   1.934       .  S
C171        C465   1.484       .  S
C171        C604   1.415       .  A
C172        C599   1.407       .  A
C172        C603   1.415       .  A
C172       Br173   1.933       .  S
Br174       C599   1.934       .  S
C177        C178   1.408       .  A
C177        C182   1.408       .  A
C177       Br184   1.932       .  S
C178        C395   1.408       .  A
C179        C180   1.405       .  A
C179        C394   1.408   1_554  A
C179       Br618   1.933   1_455  S
C180        C397   1.416   1_554  A
C180       Br617   1.934   1_455  S
C181        C182   1.417       .  A
C181        C396   1.416       .  A
C182       Br183   1.932       .  S
Br185       C612   1.934       .  S
Br186       C611   1.933       .  S
C187        C188   1.409       .  A
C187        C192   1.408       .  A
C187       Br194   1.923       .  S
C188        C189   1.409       .  A
C189        C190   1.406       .  A
C189       Br196   1.929       .  S
C190        C191   1.411       .  A
C190       Br195   1.928       .  S
C191        C192   1.412       .  A
C192       Br193   1.935       .  S
C197        C198   1.411       .  A
C197        C202   1.410       .  A
C197       Br204   1.930       .  S
C198        C199   1.412       .  A
C199        C200   1.406       .  A
C199       Br638   1.934       .  S
C200        C201   1.409       .  A
C200       Br205   1.925       .  S
C201        C202   1.411       .  A
C202       Br203   1.931       .  S
Br206       C631   1.934       .  S
C207        C208   1.416       .  A
C207        C212   1.406       .  A
C207       Br214   1.934       .  S
C208        C209   1.419       .  A
C209        C210   1.409       .  A
C209       Br216   1.933       .  S
C210        C211   1.406       .  A
C210       Br215   1.932       .  S
C211        C212   1.406       .  A
C212       Br213   1.928       .  S
C217        N218   1.361       .  A
C217        N222   1.358       .  A
C217        C417   1.482       .  S
N218        C219   1.361       .  A
C219        N220   1.356       .  A
C219        C404   1.477       .  S
N220        C221   1.356       .  A
C221        N222   1.359       .  A
C221        C427   1.471       .  S
O223        C226   1.266   1_655  A
C224        C377   1.469   1_455  S
C224        O233   1.263       .  A
C224        O229   1.265   1_455  A
O225        C231   1.265       .  A
C226        C384   1.479   1_455  S
C226        O234   1.266       .  A
C227        C394   1.474       .  S
Cd228       O235   2.449       .  S
Cd228       O233   2.446   1_554  S
Cd228       O229   2.484   1_454  S
C231        C364   1.481       .  S
O236        C239   1.268       .  A
C237        C407   1.479       .  S
C237        O246   1.263       .  A
C237        O242   1.266       .  A
O238        C244   1.267       .  A
O238       Cd457   2.486       .  S
C239        C414   1.481       .  S
C239        O247   1.265       .  A
C240        C397   1.484       .  S
C240        O461   1.265       .  A
C240        O243   1.264       .  A
Cd241       O454   2.486   1_455  S
Cd241       O680   2.449   1_556  S
Cd241       O246   2.445       .  S
Cd241       O242   2.486       .  S
Cd241       O461   2.455       .  S
Cd241       O243   2.463       .  S
C244        C354   1.486       .  S
O245        C456   1.265       .  A
O245       Cd457   2.455       .  S
O248       Cd673   2.449   1_554  S
C249        N250   1.359       .  A
C249        N686   1.361       .  A
C249        C819   1.484       .  S
N250        C251   1.355       .  A
C251        N252   1.351       .  A
C251        C347   1.461       .  S
N252        C253   1.353       .  A
C253        N686   1.359       .  A
C253        C806   1.466       .  S
N254        C681   1.361       .  A
N254        C685   1.359       .  A
C255        N256   1.358       .  A
C255        N260   1.353       .  A
C255        C334   1.465       .  S
C257        N258   1.356       .  A
C257        C324   1.472       .  S
C259        N260   1.352       .  A
C259        C367   1.461       .  S
O261        C264   1.268       .  A
O261       Cd266   2.448       .  S
C262        C327   1.470       .  S
C262        O271   1.264       .  A
C262        O267   1.265       .  A
O263        C269   1.266       .  A
O263       Cd266   2.444       .  S
C264        C337   1.468       .  S
C264        O272   1.263       .  A
C265        C314   1.466       .  S
C265        O270   1.264       .  A
C265        O268   1.264       .  A
Cd266       O273   2.411       .  S
Cd266       O272   2.400       .  S
Cd266       O271   2.442       .  S
Cd266       O267   2.462       .  S
Cd266       O270   2.434       .  S
Cd266       O268   2.437       .  S
C269        C344   1.472       .  S
C269        O273   1.263       .  A
O274        C277   1.265       .  A
O274       Cd279   2.495       .  S
C275        C307   1.472       .  S
C275        O284   1.265       .  A
C275        O280   1.266       .  A
O276        C282   1.265       .  A
O276       Cd279   2.435       .  S
C277        C297   1.481       .  S
C277        O285   1.262       .  A
C278        C424   1.486       .  S
C278        O283   1.263       .  A
C278        O281   1.264       .  A
Cd279       O286   2.416       .  S
Cd279       O285   2.451       .  S
Cd279       O284   2.467       .  S
Cd279       O280   2.451       .  S
Cd279       O283   2.474       .  S
Cd279       O281   2.460       .  S
C282        C317   1.465       .  S
C282        O286   1.264       .  A
C287        N288   1.360       .  A
C287        N292   1.359       .  A
C287        C304   1.474       .  S
N288        C289   1.359       .  A
C289        C357   1.475       .  S
N290        C291   1.358       .  A
C291        C294   1.476       .  S
C293        C294   1.407       .  A
C293        C298   1.409       .  A
C293       Br300   1.931       .  S
C294        C295   1.409       .  A
C295        C296   1.407       .  A
C295       Br302   1.929       .  S
C296        C297   1.413       .  A
C296       Br301   1.935       .  S
C297        C298   1.414       .  A
C298       Br299   1.929       .  S
C303        C304   1.409       .  A
C303        C308   1.405       .  A
C303       Br310   1.928       .  S
C304        C305   1.410       .  A
C305        C306   1.411       .  A
C305       Br312   1.929       .  S
C306        C307   1.410       .  A
C306       Br311   1.930       .  S
C307        C308   1.407       .  A
C308       Br309   1.931       .  S
C313        C314   1.410       .  A
C313        C318   1.404   1_565  A
C313       Br320   1.932       .  S
C314        C315   1.409       .  A
C315        C316   1.402   1_565  A
C315       Br322   1.932       .  S
C316        C317   1.410       .  A
C316       Br321   1.935       .  S
C317        C318   1.410       .  A
C318       Br319   1.933       .  S
C323        C324   1.410       .  A
C323        C328   1.405       .  A
C323       Br330   1.932       .  S
C324        C325   1.412       .  A
C325        C326   1.406       .  A
C325       Br332   1.934       .  S
C326        C327   1.408       .  A
C326       Br331   1.930       .  S
C327        C328   1.409       .  A
C328       Br329   1.931       .  S
C333        C334   1.407       .  A
C333        C338   1.403       .  A
C333       Br340   1.933       .  S
C334        C335   1.410       .  A
C335        C336   1.404       .  A
C335       Br342   1.932       .  S
C336        C337   1.408       .  A
C336       Br341   1.931       .  S
C337        C338   1.412       .  A
C338       Br339   1.933       .  S
C343        C344   1.414       .  A
C343        C348   1.403       .  A
C343       Br350   1.934       .  S
C344        C345   1.413       .  A
C345        C346   1.403       .  A
C345       Br352   1.931       .  S
C346        C347   1.404       .  A
C346       Br351   1.931       .  S
C347        C348   1.405       .  A
C348       Br349   1.931       .  S
C353        C354   1.419       .  A
C353        C358   1.409       .  A
C354        C355   1.416       .  A
C355        C356   1.409       .  A
C355       Br362   1.934       .  S
C356        C357   1.407       .  A
C356       Br361   1.930       .  S
C357        C358   1.406       .  A
C363        C368   1.405       .  A
C363       Br370   1.929   1_554  S
C364        C365   1.415       .  A
C365        C366   1.405       .  A
C365       Br372   1.932       .  S
C366        C367   1.405       .  A
C366       Br371   1.934       .  S
C368       Br369   1.935   1_554  S
C373        C374   1.409       .  A
C373        C378   1.405       .  A
C373       Br380   1.933       .  S
C374        C685   1.466       .  S
C374        C375   1.407       .  A
C375        C376   1.406       .  A
C375       Br814   1.927       .  S
C376        C377   1.408       .  A
C376       Br381   1.929       .  S
C377        C378   1.406       .  A
C378       Br379   1.924   1_655  S
Br382       C807   1.927       .  S
C383        C384   1.409       .  A
C383        C820   1.407       .  A
C383       Br822   1.934       .  S
C384        C385   1.411   1_655  A
C385        C386   1.409       .  A
C385       Br392   1.932       .  S
C386        C387   1.415   1_455  A
C386       Br391   1.934       .  S
C387        C681   1.484       .  S
C387        C820   1.415       .  A
C388        C815   1.407       .  A
C388        C819   1.415       .  A
C388       Br389   1.933       .  S
Br390       C815   1.934       .  S
C393        C394   1.408       .  A
C393        C398   1.408       .  A
C393       Br400   1.932       .  S
C395        C396   1.405       .  A
C395       Br834   1.933   1_455  S
C396       Br833   1.934   1_455  S
C397        C398   1.417       .  A
C398       Br399   1.932       .  S
Br401       C828   1.934       .  S
Br402       C827   1.933       .  S
C403        C404   1.409       .  A
C403        C408   1.408       .  A
C403       Br410   1.923       .  S
C404        C405   1.409       .  A
C405        C406   1.406       .  A
C405       Br412   1.929       .  S
C406        C407   1.411       .  A
C406       Br411   1.928       .  S
C407        C408   1.412       .  A
C408       Br409   1.935       .  S
C413        C414   1.411       .  A
C413        C418   1.410       .  A
C413       Br420   1.930       .  S
C414        C415   1.412       .  A
C415        C416   1.406       .  A
C415       Br854   1.934       .  S
C416        C417   1.409       .  A
C416       Br421   1.925       .  S
C417        C418   1.411       .  A
C418       Br419   1.931       .  S
Br422       C847   1.934       .  S
C423        C424   1.416       .  A
C423        C428   1.406       .  A
C423       Br430   1.934       .  S
C424        C425   1.419       .  A
C425        C426   1.409       .  A
C425       Br432   1.933       .  S
C426        C427   1.406       .  A
C426       Br431   1.932       .  S
C427        C428   1.406       .  A
C428       Br429   1.928       .  S
C433        N434   1.361       .  A
C433        N438   1.358       .  A
C433        C633   1.482       .  S
N434        C435   1.361       .  A
C435        N436   1.356       .  A
C435        C620   1.477       .  S
N436        C437   1.356       .  A
C437        N438   1.359       .  A
C437        C643   1.471       .  S
O439        C442   1.266       .  A
O439       Cd660   2.444       .  S
C440        C593   1.469       .  S
C440        O449   1.263       .  A
C440        O445   1.265       .  A
O441        C447   1.265   1_556  A
O441       Cd660   2.463   1_556  S
C442        C600   1.479       .  S
C442        O450   1.266       .  A
C443        C610   1.474       .  S
C443        O664   1.266       .  A
C443        O662   1.265       .  A
Cd444       O655   2.444       .  S
Cd444       O657   2.463       .  S
Cd444       O451   2.449       .  S
Cd444       O666   2.475       .  S
Cd444       O449   2.446       .  S
Cd444       O445   2.484       .  S
Cd444       O664   2.457       .  S
Cd444       O662   2.440       .  S
O446        C659   1.265       .  A
O446       Cd660   2.440   1_556  S
C447        C580   1.481       .  S
C447        O667   1.263       .  A
O448        C659   1.266   1_554  A
O448       Cd660   2.457       .  S
O450       Cd660   2.475       .  S
O451        C663   1.263       .  A
O452        C455   1.268       .  A
O452       Cd673   2.477   1_554  S
C453        C623   1.479       .  S
C453        O462   1.263       .  A
C453        O458   1.266       .  A
O454        C460   1.267   1_655  A
C455        C630   1.481       .  S
C455        O463   1.265       .  A
C456        C613   1.484       .  S
C456        O459   1.264       .  A
Cd457       O668   2.477       .  S
Cd457       O679   2.454       .  S
Cd457       O462   2.445       .  S
Cd457       O458   2.486       .  S
Cd457       O459   2.463       .  S
C460        C570   1.486   1_455  S
C460        O680   1.263   1_556  A
O463       Cd673   2.454   1_554  S
O464        C676   1.263       .  A
C465        N466   1.359       .  A
N466        C467   1.355       .  A
C467        N468   1.351       .  A
C467        C563   1.461       .  S
N468        C469   1.353       .  A
C471        N472   1.358       .  A
C471        N476   1.353       .  A
C471        C550   1.465       .  S
N472        C689   1.359   1_554  A
C473        N688   1.359       .  A
C473        N474   1.356       .  A
C473        C540   1.472       .  S
N474        C691   1.353       .  A
C475        N690   1.353   1_554  A
C475        N476   1.352       .  A
C475        C583   1.461       .  S
O477        C480   1.268       .  A
O477       Cd482   2.448       .  S
C478        C543   1.470       .  S
C478        O487   1.264       .  A
C478        O483   1.265       .  A
O479        C485   1.266       .  A
O479       Cd482   2.444       .  S
C480        C553   1.468       .  S
C480        O488   1.263       .  A
C481        C530   1.466       .  S
C481        O486   1.264       .  A
C481        O484   1.264       .  A
Cd482       O489   2.411       .  S
Cd482       O488   2.400       .  S
Cd482       O487   2.442       .  S
Cd482       O483   2.462       .  S
Cd482       O486   2.434       .  S
Cd482       O484   2.437       .  S
C485        C560   1.472       .  S
C485        O489   1.263       .  A
O490        C493   1.265       .  A
O490       Cd495   2.495       .  S
C491        C523   1.472       .  S
C491        O500   1.265       .  A
C491        O496   1.266       .  A
O492        C498   1.265       .  A
O492       Cd495   2.435       .  S
C493        C513   1.481       .  S
C493        O501   1.262       .  A
C494        C640   1.486       .  S
C494        O499   1.263       .  A
C494        O497   1.264       .  A
Cd495       O502   2.416       .  S
Cd495       O501   2.451       .  S
Cd495       O500   2.467       .  S
Cd495       O496   2.451       .  S
Cd495       O499   2.474       .  S
Cd495       O497   2.460       .  S
C498        C533   1.465       .  S
C498        O502   1.264       .  A
C503        N504   1.360       .  A
C503        N508   1.359       .  A
C503        C520   1.474       .  S
N504        C505   1.359       .  A
C505        N722   1.356   1_554  A
C505        C573   1.475       .  S
N506        C721   1.356       .  A
N506        C507   1.358       .  A
C507        N724   1.359       .  A
C507        C510   1.476       .  S
N508        C723   1.359   1_554  A
C509        C510   1.407       .  A
C509        C514   1.409       .  A
C509       Br516   1.931       .  S
C510        C511   1.409       .  A
C511        C512   1.407       .  A
C511       Br518   1.929       .  S
C512        C513   1.413       .  A
C512       Br517   1.935       .  S
C513        C514   1.414       .  A
C514       Br515   1.929       .  S
C519        C520   1.409       .  A
C519        C524   1.405       .  A
C519       Br526   1.928       .  S
C520        C521   1.410       .  A
C521        C522   1.411       .  A
C521       Br528   1.929       .  S
C522        C523   1.410       .  A
C522       Br527   1.930       .  S
C523        C524   1.407       .  A
C524       Br525   1.931       .  S
C529        C530   1.410       .  A
C529        C534   1.404   1_565  A
C529       Br536   1.932       .  S
C530        C531   1.409       .  A
C531        C532   1.402   1_565  A
C531       Br538   1.932       .  S
C532        C533   1.410       .  A
C532       Br537   1.935       .  S
C533        C534   1.410       .  A
C534       Br535   1.933       .  S
C539        C540   1.410       .  A
C539        C544   1.405       .  A
C539       Br546   1.932       .  S
C540        C541   1.412       .  A
C541        C542   1.406       .  A
C541       Br548   1.934       .  S
C542        C543   1.408       .  A
C542       Br547   1.930       .  S
C543        C544   1.409       .  A
C544       Br545   1.931       .  S
C549        C550   1.407       .  A
C549        C554   1.403       .  A
C549       Br556   1.933       .  S
C550        C551   1.410       .  A
C551        C552   1.404       .  A
C551       Br558   1.932       .  S
C552        C553   1.408       .  A
C552       Br557   1.931       .  S
C553        C554   1.412       .  A
C554       Br555   1.933       .  S
C559        C560   1.414       .  A
C559        C564   1.403       .  A
C559       Br566   1.934       .  S
C560        C561   1.413       .  A
C561        C562   1.403       .  A
C561       Br568   1.931       .  S
C562        C563   1.404       .  A
C562       Br567   1.931       .  S
C563        C564   1.405       .  A
C564       Br565   1.931       .  S
C569        C570   1.419       .  A
C569        C574   1.409       .  A
C569       Br792   1.935   1_655  S
C570        C571   1.416   1_556  A
C571        C572   1.409       .  A
C571       Br578   1.934       .  S
C572        C573   1.407       .  A
C572       Br577   1.930       .  S
C573        C574   1.406   1_554  A
C574       Br791   1.931       .  S
Br575       C790   1.931       .  S
Br576       C785   1.935   1_455  S
C579        C796   1.418       .  A
C579        C584   1.405       .  A
C579       Br586   1.929       .  S
C580        C795   1.418       .  A
C580        C581   1.415       .  A
C581        C582   1.405       .  A
C581       Br588   1.932       .  S
C582        C583   1.405       .  A
C582       Br587   1.934       .  S
C583        C800   1.403       .  A
C584        C799   1.403       .  A
C584       Br585   1.935       .  S
C589        C590   1.409       .  A
C589        C594   1.405       .  A
C589       Br596   1.933       .  S
C590        C591   1.407       .  A
C591        C592   1.406       .  A
C592        C593   1.408       .  A
C592       Br597   1.929       .  S
C593        C594   1.406       .  A
C594       Br595   1.924       .  S
C599        C600   1.409       .  A
C600        C601   1.411       .  A
C601        C602   1.409       .  A
C601       Br608   1.932       .  S
C602        C603   1.415       .  A
C602       Br607   1.934       .  S
C604       Br605   1.933       .  S
C609        C610   1.408       .  A
C609        C614   1.408       .  A
C609       Br616   1.932       .  S
C610        C827   1.408       .  A
C611        C826   1.408   1_554  A
C611        C612   1.405       .  A
C612        C829   1.416   1_554  A
C613        C828   1.416       .  A
C613        C614   1.417       .  A
C614       Br615   1.932       .  S
C619        C620   1.409       .  A
C619        C624   1.408       .  A
C619       Br626   1.923       .  S
C620        C621   1.409       .  A
C621        C622   1.406       .  A
C621       Br628   1.929       .  S
C622        C623   1.411       .  A
C622       Br627   1.928       .  S
C623        C624   1.412       .  A
C624       Br625   1.935       .  S
C629        C630   1.411       .  A
C629        C634   1.410       .  A
C629       Br636   1.930       .  S
C630        C631   1.412       .  A
C631        C632   1.406       .  A
C632        C633   1.409       .  A
C632       Br637   1.925       .  S
C633        C634   1.411       .  A
C634       Br635   1.931       .  S
C639        C640   1.416       .  A
C639        C644   1.406       .  A
C639       Br646   1.934       .  S
C640        C641   1.419       .  A
C641        C642   1.409       .  A
C641       Br648   1.933       .  S
C642        C643   1.406       .  A
C642       Br647   1.932       .  S
C643        C644   1.406       .  A
C644       Br645   1.928       .  S
C649        N650   1.361       .  A
C649        N654   1.358       .  A
C649        C849   1.482       .  S
N650        C651   1.361       .  A
C651        N652   1.356       .  A
C651        C836   1.477       .  S
N652        C653   1.356       .  A
C653        N654   1.359       .  A
C653        C859   1.471       .  S
O655        C658   1.266       .  A
C656        C809   1.469       .  S
C656        O665   1.263       .  A
C656        O661   1.265       .  A
O657        C663   1.265       .  A
C658        C816   1.479       .  S
C658        O666   1.266       .  A
C659        C826   1.474       .  S
Cd660       O667   2.449       .  S
Cd660       O665   2.446   1_554  S
Cd660       O661   2.484   1_554  S
C663        C796   1.481       .  S
O668        C671   1.268       .  A
C669        C839   1.479       .  S
C669        O678   1.263       .  A
C669        O674   1.266       .  A
O670        C676   1.267   1_655  A
C671        C846   1.481       .  S
C671        O679   1.265       .  A
C672        C829   1.484       .  S
C672        O675   1.264       .  A
Cd673       O678   2.445       .  S
Cd673       O674   2.486       .  S
Cd673       O675   2.463       .  S
C676        C786   1.486   1_455  S
C681        N682   1.359       .  A
N682        C683   1.355       .  A
C683        N684   1.351       .  A
C683        C779   1.461       .  S
N684        C685   1.353       .  A
C687        N688   1.358       .  A
C687        N692   1.353       .  A
C687        C766   1.465       .  S
C689        N690   1.356       .  A
C689        C756   1.472       .  S
C691        N692   1.352       .  A
C691        C799   1.461       .  S
O693        C696   1.268       .  A
O693       Cd698   2.448       .  S
C694        C759   1.470       .  S
C694        O703   1.264       .  A
C694        O699   1.265       .  A
O695        C701   1.266       .  A
O695       Cd698   2.444       .  S
C696        C769   1.468       .  S
C696        O704   1.263       .  A
C697        C746   1.466       .  S
C697        O702   1.264       .  A
C697        O700   1.264       .  A
Cd698       O705   2.411       .  S
Cd698       O704   2.400       .  S
Cd698       O703   2.442       .  S
Cd698       O699   2.462       .  S
Cd698       O702   2.434       .  S
Cd698       O700   2.437       .  S
C701        C776   1.472       .  S
C701        O705   1.263       .  A
O706        C709   1.265       .  A
O706       Cd711   2.495       .  S
C707        C739   1.472       .  S
C707        O716   1.265       .  A
C707        O712   1.266       .  A
O708        C714   1.265       .  A
O708       Cd711   2.435       .  S
C709        C729   1.481       .  S
C709        O717   1.262       .  A
C710        C856   1.486       .  S
C710        O715   1.263       .  A
C710        O713   1.264       .  A
Cd711       O718   2.416       .  S
Cd711       O717   2.451       .  S
Cd711       O716   2.467       .  S
Cd711       O712   2.451       .  S
Cd711       O715   2.474       .  S
Cd711       O713   2.460       .  S
C714        C749   1.465       .  S
C714        O718   1.264       .  A
C719        N720   1.360       .  A
C719        N724   1.359       .  A
C719        C736   1.474       .  S
N720        C721   1.359       .  A
C721        C789   1.475       .  S
N722        C723   1.358       .  A
C723        C726   1.476       .  S
C725        C726   1.407       .  A
C725        C730   1.409       .  A
C725       Br732   1.931       .  S
C726        C727   1.409       .  A
C727        C728   1.407       .  A
C727       Br734   1.929       .  S
C728        C729   1.413       .  A
C728       Br733   1.935       .  S
C729        C730   1.414       .  A
C730       Br731   1.929       .  S
C735        C736   1.409       .  A
C735        C740   1.405       .  A
C735       Br742   1.928       .  S
C736        C737   1.410       .  A
C737        C738   1.411       .  A
C737       Br744   1.929       .  S
C738        C739   1.410       .  A
C738       Br743   1.930       .  S
C739        C740   1.407       .  A
C740       Br741   1.931       .  S
C745        C746   1.410       .  A
C745        C750   1.404   1_565  A
C745       Br752   1.932       .  S
C746        C747   1.409       .  A
C747        C748   1.402   1_565  A
C747       Br754   1.932       .  S
C748        C749   1.410       .  A
C748       Br753   1.935       .  S
C749        C750   1.410       .  A
C750       Br751   1.933       .  S
C755        C756   1.410       .  A
C755        C760   1.405       .  A
C755       Br762   1.932       .  S
C756        C757   1.412       .  A
C757        C758   1.406       .  A
C757       Br764   1.934       .  S
C758        C759   1.408       .  A
C758       Br763   1.930       .  S
C759        C760   1.409       .  A
C760       Br761   1.931       .  S
C765        C766   1.407       .  A
C765        C770   1.403       .  A
C765       Br772   1.933       .  S
C766        C767   1.410       .  A
C767        C768   1.404       .  A
C767       Br774   1.932       .  S
C768        C769   1.408       .  A
C768       Br773   1.931       .  S
C769        C770   1.412       .  A
C770       Br771   1.933       .  S
C775        C776   1.414       .  A
C775        C780   1.403       .  A
C775       Br782   1.934       .  S
C776        C777   1.413       .  A
C777        C778   1.403       .  A
C777       Br784   1.931       .  S
C778        C779   1.404       .  A
C778       Br783   1.931       .  S
C779        C780   1.405       .  A
C780       Br781   1.931       .  S
C785        C786   1.419       .  A
C785        C790   1.409       .  A
C786        C787   1.416       .  A
C787        C788   1.409       .  A
C787       Br794   1.934       .  S
C788        C789   1.407       .  A
C788       Br793   1.930       .  S
C789        C790   1.406       .  A
C795        C800   1.405       .  A
C795       Br802   1.929   1_554  S
C796        C797   1.415       .  A
C797        C798   1.405       .  A
C797       Br804   1.932       .  S
C798        C799   1.405       .  A
C798       Br803   1.934       .  S
C800       Br801   1.935   1_554  S
C805        C806   1.409       .  A
C805        C810   1.405       .  A
C805       Br812   1.933       .  S
C806        C807   1.407       .  A
C807        C808   1.406       .  A
C808        C809   1.408       .  A
C808       Br813   1.929       .  S
C809        C810   1.406       .  A
C810       Br811   1.924       .  S
C815        C816   1.409       .  A
C816        C817   1.411       .  A
C817        C818   1.409       .  A
C817       Br824   1.932       .  S
C818        C819   1.415       .  A
C818       Br823   1.934       .  S
C820       Br821   1.933       .  S
C825        C826   1.408       .  A
C825        C830   1.408       .  A
C825       Br832   1.932       .  S
C827        C828   1.405       .  A
C829        C830   1.417       .  A
C830       Br831   1.932       .  S
C835        C836   1.409       .  A
C835        C840   1.408       .  A
C835       Br842   1.923       .  S
C836        C837   1.409       .  A
C837        C838   1.406       .  A
C837       Br844   1.929       .  S
C838        C839   1.411       .  A
C838       Br843   1.928       .  S
C839        C840   1.412       .  A
C840       Br841   1.935       .  S
C845        C846   1.411       .  A
C845        C850   1.410       .  A
C845       Br852   1.930       .  S
C846        C847   1.412       .  A
C847        C848   1.406       .  A
C848        C849   1.409       .  A
C848       Br853   1.925       .  S
C849        C850   1.411       .  A
C850       Br851   1.931       .  S
C855        C856   1.416       .  A
C855        C860   1.406       .  A
C855       Br862   1.934       .  S
C856        C857   1.419       .  A
C857        C858   1.409       .  A
C857       Br864   1.933       .  S
C858        C859   1.406       .  A
C858       Br863   1.932       .  S
C859        C860   1.406       .  A
C860       Br861   1.928       .  S
