geometry optimzed in LAMMPS
_audit_creation_date              2020-11-30 
_audit_creation_method            'lammps2cif' 
_symmetry_space_group_name_H-M    'P1' 
_symmetry_Int_Tables_number       1 
_symmetry_cell_setting            triclinic 
loop_ 
_symmetry_equiv_pos_as_xyz 
  x,y,z 
_cell_length_a                    30.83814369 
_cell_length_b                    30.22501026859346 
_cell_length_c                    30.03827263843004 
_cell_angle_alpha                 88.85979807995353 
_cell_angle_beta                  89.46735462935816 
_cell_angle_gamma                 90.72470019069225 
loop_ 
_atom_site_label 
_atom_site_type_symbol 
_atom_site_fract_x 
_atom_site_fract_y 
_atom_site_fract_z 
_atom_site_charge 
O1          O  0.54232490  0.60310769  0.59861409    -0.78600
C2          C  0.61500603  0.60843431  0.45977982     0.82400
O3          O  0.66280883  0.66982851  0.60648549    -0.79700
O4          O  0.63151458  0.73574712  0.44798381    -0.81200
O5          O  0.47696703  0.71959498  0.50650239    -0.81000
O6          O  0.51036667  0.66656347  0.61552038    -0.79600
Zn7        Zn  0.58461941  0.62170001  0.54825087     1.55700
O8          O  0.52525302  0.73937588  0.45375616    -0.81000
Cd9        Cd  0.52251853  0.70196619  0.55441558     1.59700
Cd10       Cd  0.62516143  0.71703881  0.56664101     1.59600
O11         O  0.52954659  0.76632350  0.56686447    -0.81000
O12         O  0.57998121  0.68385168  0.53335137    -1.91500
Cd13       Cd  0.57935899  0.69828739  0.46772030     1.59900
O14         O  0.59025444  0.76646083  0.60539212    -0.81000
O15         O  0.60100953  0.64090583  0.43627943    -0.79600
C16         C  0.66411023  0.62727647  0.60421843     0.82900
C17         C  0.52284028  0.62747122  0.62668980     0.82600
O18         O  0.59027394  0.59072392  0.48983450    -0.78600
C19         C  0.48841667  0.74435751  0.47312083     0.83400
O20         O  0.63843227  0.60666286  0.57923530    -0.78700
C21         C  0.55230324  0.78212083  0.59712019     0.83500
C22         C  0.66493997  0.74472352  0.47029943     0.83800
O23         O  0.66553499  0.74045019  0.51295473    -0.81100
O24         O  0.80558625  0.63445249  0.20259883    -0.78600
C25         C  0.91746187  0.75188402  0.23838281     0.82400
O26         O  0.88637030  0.59080842  0.31651599    -0.79700
O27         O  0.87392189  0.76202013  0.36106613    -0.81200
O28         O  0.73470717  0.73225993  0.30728868    -0.81000
O29         O  0.75779121  0.62027130  0.25726194    -0.79600
Zn30       Zn  0.84868680  0.67126320  0.24127196     1.55700
O31         O  0.78532453  0.78343208  0.31311849    -0.81000
Cd32       Cd  0.76550663  0.67159547  0.30272224     1.59700
Cd33       Cd  0.85705587  0.64782049  0.34955050     1.59600
O34         O  0.74561363  0.64287736  0.36122187    -0.81000
O35         O  0.82883277  0.68474553  0.30091284    -1.91500
Cd36       Cd  0.84280391  0.75049310  0.30474409     1.59900
O37         O  0.80601673  0.62434381  0.39670698    -0.81000
O38         O  0.89408854  0.77537084  0.26369518    -0.79600
C39         C  0.88849281  0.58535079  0.27404977     0.82900
C40         C  0.77824106  0.60794935  0.22238714     0.82600
O41         O  0.90228486  0.71468145  0.22447390    -0.78600
C42         C  0.75442374  0.76076910  0.33101035     0.83400
O43         O  0.87528296  0.61497462  0.24795317    -0.78700
C44         C  0.76412171  0.62565570  0.39463365     0.83500
C45         C  0.90366110  0.73898084  0.37790870     0.83800
O46         O  0.90331687  0.69607891  0.37631331    -0.81100
O47         O  0.90154398  0.52778797  0.10804693    -0.78600
C48         C  0.80670257  0.50579963  0.97309968     0.82400
O49         O  0.80749584  0.43107214  0.12371893    -0.79700
O50         O  0.83367880  0.38862960  0.95436112    -0.81200
O51         O  0.97816242  0.42899492  0.00665332    -0.81000
O52         O  0.94635541  0.47157411  0.11863063    -0.79600
Zn53       Zn  0.86448147  0.50120318  0.05549262     1.55700
O54         O  0.93528344  0.42337356  0.94938011    -0.81000
Cd55       Cd  0.93842134  0.43355031  0.06177992     1.59700
Cd56       Cd  0.83897284  0.39451283  0.07083360     1.59600
O57         O  0.94726680  0.37384877  0.08805283    -0.81000
O58         O  0.87786789  0.44032200  0.04106612    -1.91500
Cd59       Cd  0.87369987  0.43770443  0.97404631     1.59900
O60         O  0.88083338  0.34805793  0.10464926    -0.81000
O61         O  0.83579331  0.48881730  0.94846961    -0.79600
C62         C  0.80708025  0.47321133  0.13005725     0.82900
C63         C  0.92667340  0.50523347  0.13360903     0.82600
O64         O  0.81607344  0.51925431  0.01212222    -0.78600
C65         C  0.96087227  0.40487952  0.97705704     0.83400
O66         O  0.82447536  0.50000275  0.10292832    -0.78700
C67         C  0.92246425  0.34584339  0.10709681     0.83500
C68         C  0.80392278  0.36597066  0.97351209     0.83800
O69         O  0.79977430  0.36474601  0.01668073    -0.81100
C70         C  0.68994394  0.47718203  0.98983897     0.80100
N71         N  0.67502026  0.47843746  0.94822295    -0.78200
C72         C  0.70045690  0.49011416  0.91328988     0.82500
N73         N  0.74374550  0.49956242  0.91957500    -0.78100
C74         C  0.75962631  0.49978046  0.96220704     0.82600
N75         N  0.73230272  0.48857885  0.99672430    -0.79900
C76         C  0.95603177  0.48607096  0.25323692     0.80100
N77         N  0.93290472  0.51760795  0.27438834    -0.78200
C78         C  0.90837795  0.54675420  0.25125584     0.82500
N79         N  0.90686722  0.54417811  0.20536589    -0.78100
C80         C  0.93045580  0.51329659  0.18320103     0.82600
N81         N  0.95486706  0.48494510  0.20786554    -0.79900
O82         O  0.56929889  0.34247866  0.75767405    -0.78600
C83         C  0.71382562  0.35842929  0.83478174     0.82400
O84         O  0.54882065  0.40827936  0.86055964    -0.79700
O85         O  0.70097096  0.49035807  0.83431084    -0.81200
O86         O  0.65960625  0.46662856  0.67665115    -0.81000
O87         O  0.56380933  0.39639081  0.70582359    -0.79600
Zn88       Zn  0.62189504  0.36379780  0.79595697     1.55700
O89         O  0.71006816  0.47999554  0.72778657    -0.81000
Cd90       Cd  0.61262818  0.43993020  0.72024499     1.59700
Cd91       Cd  0.59217245  0.45573426  0.82523385     1.59600
O92         O  0.58008223  0.49677227  0.71836652    -0.81000
O93         O  0.63014122  0.42578449  0.78229779    -1.91500
Cd94       Cd  0.69189470  0.44506021  0.78601716     1.59900
O95         O  0.56491364  0.51072155  0.78939089    -0.81000
O96         O  0.72598972  0.39679408  0.82080607    -0.79600
C97         C  0.55827749  0.36776543  0.87021053     0.82900
C98         C  0.54814722  0.36249307  0.72674465     0.82600
O99         O  0.68019941  0.33864805  0.81889016    -0.78600
C100        C  0.69279176  0.48825523  0.68986661     0.83400
O101        O  0.59092724  0.35025370  0.85249551    -0.78700
C102        C  0.56434297  0.52132526  0.74754621     0.83500
C103        C  0.67918279  0.48670786  0.87008143     0.83800
O104        O  0.63901785  0.47499229  0.87056988    -0.81100
O105        O  0.46240262  0.22101615  0.85640452    -0.78600
C106        C  0.41413724  0.11159441  0.75648303     0.82400
O107        O  0.36790746  0.27576221  0.74922883    -0.79700
O108        O  0.28450637  0.14552432  0.79575767    -0.81200
O109        O  0.31514135  0.16603952  0.92573084    -0.81000
O110        O  0.41515029  0.24100745  0.90952822    -0.79600
Zn111      Zn  0.42293012  0.19788377  0.80832238     1.55700
O112        O  0.31708698  0.10487247  0.88542533    -0.81000
Cd113      Cd  0.35578367  0.21210947  0.88935133     1.59700
Cd114      Cd  0.32847667  0.22480009  0.78156273     1.59600
O115        O  0.31240102  0.26141748  0.88742967    -0.81000
O116        O  0.36462838  0.19374360  0.82796484    -1.91500
Cd117      Cd  0.34159125  0.13257263  0.82573895     1.59900
O118        O  0.27597745  0.24793657  0.82474214    -0.81000
O119        O  0.38022724  0.09834090  0.77820661    -0.79600
C120        C  0.40958242  0.27782490  0.74903087     0.82900
C121        C  0.45290724  0.24315054  0.89098860     0.82600
O122        O  0.43484735  0.14672887  0.76712627    -0.78600
C123        C  0.30173197  0.12659734  0.91804157     0.83400
O124        O  0.43150566  0.24912858  0.76941958    -0.78700
C125        C  0.27738929  0.26115757  0.86553167     0.83500
C126        C  0.29616107  0.13801744  0.75651515     0.83800
O127        O  0.31684769  0.16936006  0.73649751    -0.81100
C128        C  0.52854978  0.29664541  0.96882869     0.80100
N129        N  0.49848655  0.26903536  0.95147317    -0.78200
C130        C  0.48589128  0.27405963  0.90880635     0.82500
N131        N  0.50317923  0.30816363  0.88323105    -0.78100
C132        C  0.53210950  0.33782199  0.90079080     0.82600
N133        N  0.54561351  0.33083307  0.94353799    -0.79900
C134        C  0.44829953  0.35619898  0.66011673     0.80100
N135        N  0.48828253  0.36624140  0.67558304    -0.78200
C136        C  0.50359942  0.34867298  0.71372063     0.82500
N137        N  0.47701162  0.32146776  0.73866835    -0.78100
C138        C  0.43539139  0.31246509  0.72492360     0.82600
N139        N  0.42172783  0.32892606  0.68500160    -0.79900
C140        C  0.49683279  0.04225945  0.70805304     0.80100
N141        N  0.48641991  0.04037988  0.66441968    -0.78200
C142        C  0.44964717  0.05917992  0.64877887     0.82500
N143        N  0.42336666  0.08142599  0.67830905    -0.78100
C144        C  0.43467009  0.08332396  0.72269780     0.82600
N145        N  0.47062404  0.06302429  0.73652922    -0.79900
C146        C  0.96876660  0.02210516  0.14467720     0.80100
N147        N  0.99461873  0.05247866  0.12357280    -0.78200
C148        C  0.02587514  0.07414334  0.14559893     0.82500
N149        N  0.03237632  0.06457486  0.18982258    -0.78100
C150        C  0.00728994  0.03347448  0.21161355     0.82600
N151        N  0.97544518  0.01276584  0.18867382    -0.79900
C152        C  0.18494744  0.32964714  0.90190129     0.80100
N153        N  0.17698461  0.31169292  0.94290018    -0.78200
C154        C  0.19927932  0.27725211  0.95942199     0.82500
N155        N  0.23070067  0.25920122  0.93316684    -0.78100
C156        C  0.23852011  0.27582515  0.89060846     0.82600
N157        N  0.21618967  0.31170950  0.87574068    -0.79900
C158        C  0.23078628  0.04273675  0.97673157     0.80100
N159        N  0.26611672  0.06322109  0.95762469    -0.78200
C160        C  0.26471269  0.10652713  0.94458272     0.82500
N161        N  0.22757548  0.12988178  0.95289194    -0.78100
C162        C  0.19115812  0.10902051  0.97042194     0.82600
N163        N  0.19356425  0.06548674  0.98105650    -0.79900
C164        C  0.25332821  0.03389435  0.16971307     0.80100
N165        N  0.24020431  0.07612024  0.16240280    -0.78200
C166        C  0.20323193  0.09162541  0.18023233     0.82500
N167        N  0.17839344  0.06336711  0.20630420    -0.78100
C168        C  0.19097061  0.02038265  0.21460565     0.82600
N169        N  0.22873112  0.00630949  0.19649478    -0.79900
C170        C  0.92187779  0.28797608  0.96998604     0.80100
N171        N  0.92481507  0.33279392  0.96546433    -0.78200
C172        C  0.95917336  0.35545191  0.98259068     0.82500
N173        N  0.99200025  0.33215349  0.00248092    -0.78100
C174        C  0.99006009  0.28670775  0.00564802     0.82600
N175        N  0.95469919  0.26569237  0.99018702    -0.79900
C176        C  0.94753165  0.27996661  0.20745149     0.80100
N177        N  0.92452505  0.29956783  0.17442267    -0.78200
C178        C  0.94483100  0.31445446  0.13678275     0.82500
N179        N  0.98884205  0.30965302  0.13241398    -0.78100
C180        C  0.01230025  0.28971399  0.16520849     0.82600
N181        N  0.99113508  0.27490167  0.20248824    -0.79900
O182        O  0.08184521  0.29495376  0.12737543    -0.78600
C183        C  0.18728366  0.26176215  0.00574063     0.82400
O184        O  0.02871949  0.21727824  0.01932627    -0.79700
O185        O  0.17498984  0.13420221  0.03968276    -0.81200
O186        O  0.15235457  0.15110880  0.17986501    -0.81000
O187        O  0.06796673  0.23798146  0.17438314    -0.79600
Zn188      Zn  0.11009160  0.26578118  0.07314917     1.55700
O189        O  0.20552775  0.15349021  0.12904788    -0.81000
Cd190      Cd  0.10600733  0.18969615  0.14804482     1.59700
Cd191      Cd  0.07867427  0.17108685  0.04141023     1.59600
O192        O  0.06478114  0.13909711  0.15056273    -0.81000
O193        O  0.11605064  0.20382341  0.08456756    -1.91500
Cd194      Cd  0.17727467  0.18817672  0.07532308     1.59900
O195        O  0.05092342  0.11755396  0.08128507    -0.81000
O196        O  0.20480168  0.22776209  0.02369177    -0.79600
C197        C  0.02750437  0.25987075  0.02190727     0.82900
C198        C  0.05745476  0.27496458  0.15659385     0.82600
O199        O  0.15622048  0.28209084  0.02527539    -0.78600
C200        C  0.18705113  0.13540954  0.16345362     0.83400
O201        O  0.05844661  0.28090551  0.03890846    -0.78700
C202        C  0.04846936  0.11200573  0.12395477     0.83500
C203        C  0.16176324  0.13319095  0.00022537     0.83800
O204        O  0.12419739  0.14850956  0.99022388    -0.81100
O205        O  0.44778679  0.91516191  0.50369478    -0.78600
C206        C  0.43459308  0.04407114  0.60399221     0.82400
O207        O  0.38502048  0.87354505  0.62558210    -0.79700
O208        O  0.32629678  0.03069221  0.62463067    -0.81200
O209        O  0.30172132  0.00398786  0.46040909    -0.81000
O210        O  0.39004159  0.91720527  0.45921378    -0.79600
Zn211      Zn  0.42660315  0.95501259  0.55526245     1.55700
O212        O  0.29595398  0.04198377  0.52209226    -0.81000
Cd213      Cd  0.34540140  0.95770801  0.49044255     1.59700
Cd214      Cd  0.33594304  0.92011075  0.59926997     1.59600
O215        O  0.29526312  0.91681296  0.49409964    -0.81000
O216        O  0.36453334  0.96226859  0.55364818    -1.91500
Cd217      Cd  0.34957958  0.02471367  0.56305479     1.59900
O218        O  0.28194143  0.88926229  0.56235320    -0.81000
O219        O  0.40243557  0.06215378  0.58449777    -0.79600
C220        C  0.42664253  0.87765733  0.62166089     0.82900
C221        C  0.42535552  0.89900966  0.47206247     0.82600
O222        O  0.45102716  0.00814042  0.58950037    -0.78600
C223        C  0.28036010  0.03060421  0.48461380     0.83400
O224        O  0.44295497  0.90892236  0.59835440    -0.78700
C225        C  0.27243447  0.89346404  0.52050550     0.83500
C226        C  0.31794769  0.00539955  0.65719932     0.83800
O227        O  0.31853389  0.96287567  0.65369229    -0.81100
O228        O  0.05008660  0.03381263  0.27835838    -0.78600
C229        C  0.13335679  0.01616662  0.41049480     0.82400
O230        O  0.16702468  0.94911064  0.25051755    -0.79700
O231        O  0.13766992  0.89801842  0.41315407    -0.81200
O232        O  0.98689314  0.89179735  0.35683403    -0.81000
O233        O  0.00184774  0.97901147  0.26904064    -0.79600
Zn234      Zn  0.09702427  0.00432947  0.31725217     1.55700
O235        O  0.03437662  0.88739702  0.41216264    -0.81000
Cd236      Cd  0.02465022  0.92923640  0.31032904     1.59700
Cd237      Cd  0.13122010  0.90461375  0.29842117     1.59600
O238        O  0.02408510  0.88053605  0.26660216    -0.81000
O239        O  0.08596038  0.94209069  0.32811490    -1.91500
Cd240      Cd  0.08519262  0.93171508  0.39357452     1.59900
O241        O  0.09068454  0.85208767  0.26999423    -0.81000
O242        O  0.10642694  0.98743162  0.42685133    -0.79600
C243        C  0.16518800  0.99184500  0.24689122     0.82900
C244        C  0.01920051  0.01582778  0.25652120     0.82600
O245        O  0.13207951  0.02809467  0.36953751    -0.78600
C246        C  0.00016012  0.87325280  0.39274345     0.83400
O247        O  0.14038714  0.01315068  0.27173234    -0.78700
C248        C  0.04986578  0.84926249  0.26005480     0.83500
C249        C  0.17031549  0.88114950  0.39485284     0.83800
O250        O  0.17391487  0.87964811  0.35190731    -0.81100
C251        C  0.98718581  0.76910966  0.45916336     0.80100
N252        N  0.95842907  0.74590411  0.43503471    -0.78200
C253        C  0.93870877  0.76433964  0.39967216     0.82500
N254        N  0.94957871  0.80709118  0.38658982    -0.78100
C255        C  0.97964325  0.83082487  0.41004663     0.82600
N256        N  0.99727168  0.81148053  0.44663998    -0.79900
C257        C  0.17205677  0.07891980  0.50518115     0.80100
N258        N  0.14700619  0.06179924  0.47331995    -0.78200
C259        C  0.16457176  0.03761609  0.44071834     0.82500
N260        N  0.20850715  0.02810418  0.44154393    -0.78100
C261        C  0.23455759  0.04578275  0.47408038     0.82600
N262        N  0.21531202  0.07108786  0.50531488    -0.79900
C263        C  0.23535583  0.79981439  0.45894647     0.80100
N264        N  0.21333912  0.81930612  0.42485952    -0.78200
C265        C  0.20264039  0.86253109  0.42672905     0.82500
N266        N  0.21641368  0.88658511  0.46250462    -0.78100
C267        C  0.23910183  0.86717324  0.49684519     0.82600
N268        N  0.24679827  0.82355920  0.49488171    -0.79900
C269        C  0.03622903  0.73415457  0.22334369     0.80100
N270        N  0.99234178  0.73009733  0.22126370    -0.78200
C271        C  0.96543414  0.76360676  0.23098962     0.82500
N272        N  0.98439714  0.80293539  0.24315219    -0.78100
C273        C  0.02923846  0.80803059  0.24359310     0.82600
N274        N  0.05466627  0.77306614  0.23461529    -0.79900
C275        C  0.29572126  0.01822228  0.77655948     0.80100
N276        N  0.29144101  0.06214942  0.78016332    -0.78200
C277        C  0.29684107  0.09015069  0.74473089     0.82500
N278        N  0.30635000  0.07275641  0.70389410    -0.78100
C279        C  0.30860371  0.02723992  0.69987772     0.82600
N280        N  0.30377148  0.00103145  0.73629885    -0.79900
C281        C  0.74556829  0.27336716  0.91807080     0.80100
N282        N  0.76849265  0.29701134  0.94831853    -0.78200
C283        C  0.77470666  0.34128837  0.94254439     0.82500
N284        N  0.75954606  0.36137865  0.90414136    -0.78100
C285        C  0.73636874  0.33754407  0.87363130     0.82600
N286        N  0.72875647  0.29421259  0.88206153    -0.79900
C287        C  0.50188019  0.81803180  0.69992103     0.80100
N288        N  0.53337319  0.80730822  0.67044148    -0.78200
C289        C  0.52830314  0.81246163  0.62639143     0.85700
N290        N  0.49134904  0.83212774  0.61138742    -0.78100
C291        C  0.45964968  0.84593984  0.63999556     0.82600
N292        N  0.46477192  0.83793628  0.68468169    -0.79900
C293        C  0.40207317  0.79980867  0.40805748     0.80100
N294        N  0.42896253  0.76884181  0.42534280    -0.78200
C295        C  0.45882510  0.77972872  0.45633060     0.82500
N296        N  0.46107402  0.82287568  0.47105153    -0.78100
C297        C  0.43465440  0.85462647  0.45248978     0.82600
N298        N  0.40642427  0.84204381  0.42104766    -0.79900
C299        C  0.78167956  0.76084014  0.45198117     0.80100
N300        N  0.74191800  0.75787661  0.47085199    -0.78200
C301        C  0.70582223  0.75549301  0.44624827     0.82500
N302        N  0.70952894  0.75546007  0.40073176    -0.78100
C303        C  0.74953237  0.76006127  0.38066661     0.82600
N304        N  0.78572486  0.76273860  0.40671644    -0.79900
C305        C  0.50231495  0.62406978  0.75034566     0.80100
N306        N  0.49886346  0.63555116  0.70609785    -0.78200
C307        C  0.51963185  0.61143691  0.67437333     0.82500
N308        N  0.54200379  0.57451962  0.68755929    -0.78100
C309        C  0.54456593  0.56283995  0.73172194     0.82600
N310        N  0.52576117  0.58821553  0.76188903    -0.79900
C311        C  0.75889331  0.58799917  0.67044785     0.80100
N312        N  0.73211695  0.61541218  0.64717709    -0.78200
C313        C  0.69393919  0.59903190  0.63136560     0.82500
N314        N  0.68220388  0.55575144  0.64142125    -0.78100
C315        C  0.70898839  0.52867452  0.66539109     0.82600
N316        N  0.74699005  0.54554457  0.67920809    -0.79900
C317        C  0.71987808  0.55523737  0.48985444     0.80100
N318        N  0.67714381  0.56568265  0.48738598    -0.78200
C319        C  0.66197268  0.59589807  0.45762222     0.82500
N320        N  0.69076292  0.61620108  0.42874831    -0.78100
C321        C  0.73415484  0.60649853  0.43003417     0.82600
N322        N  0.74811648  0.57619153  0.46069863    -0.79900
C323        C  0.75457169  0.48750912  0.23952451     0.80100
N324        N  0.77029991  0.46842056  0.20258223    -0.78200
C325        C  0.78852426  0.49411759  0.16997689     0.82500
N326        N  0.79189693  0.53954454  0.17523006    -0.78100
C327        C  0.77397350  0.55918916  0.21158151     0.82600
N328        N  0.75605425  0.53223514  0.24348151    -0.79900
O329        O  0.09159079  0.30363180  0.57876690    -0.78600
C330        C  0.19264710  0.42569901  0.56224800     0.82400
O331        O  0.22310503  0.31562647  0.65393534    -0.79700
O332        O  0.19654954  0.44600559  0.69533815    -0.81200
O333        O  0.05419155  0.41070851  0.71468622    -0.81000
O334        O  0.03753815  0.32114332  0.62496207    -0.79600
Zn335      Zn  0.14063047  0.34812704  0.59320229     1.55700
O336        O  0.10417555  0.46353673  0.69950954    -0.81000
Cd337      Cd  0.07282426  0.35890103  0.67183890     1.59700
Cd338      Cd  0.17396834  0.33808076  0.69576515     1.59600
O339        O  0.07062339  0.30699752  0.71393053    -0.81000
O340        O  0.13412570  0.36875732  0.65363280    -1.91500
Cd341      Cd  0.14694554  0.43270556  0.65457625     1.59900
O342        O  0.13758420  0.28511494  0.72962679    -0.81000
O343        O  0.18323084  0.44860788  0.59648772    -0.79600
C344        C  0.22453445  0.30798325  0.61219849     0.82900
C345        C  0.05354288  0.29616165  0.59493201     0.82600
O346        O  0.16881388  0.39302705  0.55069263    -0.78600
C347        C  0.07320830  0.44745761  0.72397367     0.83400
O348        O  0.19262464  0.31453077  0.58728697    -0.78700
C349        C  0.09608708  0.27953529  0.73151515     0.83500
C350        C  0.21427530  0.42587311  0.72738063     0.83800
O351        O  0.20657700  0.38476101  0.73613213    -0.81100
O352        O  0.59368071  0.11073697  0.55573151    -0.78600
C353        C  0.69617591  0.98951060  0.55781949     0.82400
O354        O  0.71975226  0.13486554  0.47037842    -0.79700
O355        O  0.69737226  0.98016045  0.42572420    -0.81200
O356        O  0.55591377  0.02040421  0.41250707    -0.81000
O357        O  0.54077806  0.09186637  0.51022360    -0.79600
Zn358      Zn  0.64641181  0.07510401  0.53416511     1.55700
O359        O  0.60726052  0.96913440  0.41761177    -0.81000
Cd360      Cd  0.57528046  0.06841120  0.45678611     1.59700
Cd361      Cd  0.67333763  0.09703174  0.42986714     1.59600
O362        O  0.56599778  0.12082194  0.41585256    -0.81000
O363        O  0.63757202  0.05994626  0.47271904    -1.91500
Cd364      Cd  0.64861635  0.99409748  0.46772993     1.59900
O365        O  0.63095742  0.13899244  0.38822179    -0.81000
O366        O  0.68104789  0.96818837  0.52466804    -0.79600
C367        C  0.72037333  0.13908794  0.51319000     0.82900
C368        C  0.56056676  0.12137180  0.53243667     0.82600
O369        O  0.68179746  0.02768879  0.56756081    -0.78600
C370        C  0.57692984  0.98838313  0.39595609     0.83400
O371        O  0.69265488  0.11947898  0.53792190    -0.78700
C372        C  0.58932211  0.14345650  0.38900352     0.83500
C373        C  0.70534136  0.00311696  0.39115134     0.83800
O374        O  0.69855057  0.04531395  0.38936264    -0.81100
C375        C  0.58763336  0.23972526  0.51032474     0.80100
N376        N  0.58965894  0.19676056  0.52409315    -0.78200
C377        C  0.55409242  0.16955410  0.52199464     0.82500
N378        N  0.51528327  0.18684761  0.50777241    -0.78100
C379        C  0.51287800  0.23115413  0.49624593     0.82600
N380        N  0.54918557  0.25584753  0.49642776    -0.79900
O381        O  0.44454838  0.26273042  0.33507649    -0.78600
C382        C  0.33103574  0.37037205  0.32612398     0.82400
O383        O  0.45390264  0.39454447  0.41230870    -0.79700
O384        O  0.31335208  0.36316792  0.45958826    -0.81200
O385        O  0.34216393  0.22470643  0.47880266    -0.81000
O386        O  0.43202871  0.20852899  0.38594606    -0.79600
Zn387      Zn  0.40839828  0.31542777  0.35256185     1.55700
O388        O  0.29084231  0.27199293  0.45824881    -0.81000
Cd389      Cd  0.39244682  0.24128338  0.43248882     1.59700
Cd390      Cd  0.42232501  0.34408116  0.45392361     1.59600
O391        O  0.43958359  0.22976692  0.47643751    -0.81000
O392        O  0.38832848  0.30555039  0.41371424    -1.91500
Cd393      Cd  0.32538060  0.31656013  0.41564483     1.59900
O394        O  0.47052846  0.29671262  0.47847074    -0.81000
O395        O  0.30853900  0.35504673  0.35936534    -0.79600
C396        C  0.46304897  0.39493601  0.37038318     0.82900
C397        C  0.45450826  0.22572407  0.35362111     0.82600
O398        O  0.36666436  0.35256004  0.31464666    -0.78600
C399        C  0.30670195  0.24476354  0.48692313     0.83400
O400        O  0.45203863  0.36305200  0.34630988    -0.78700
C401        C  0.47197870  0.25403297  0.48392111     0.83500
C402        C  0.33304807  0.38199361  0.49059311     0.83800
O403        O  0.37431369  0.37697074  0.49654745    -0.81100
C404        C  0.53207446  0.49556201  0.35184587     0.80100
N405        N  0.50992572  0.46130797  0.37182456    -0.78200
C406        C  0.48582738  0.43296330  0.34756887     0.82500
N407        N  0.48345786  0.43935630  0.30205249    -0.78100
C408        C  0.50592877  0.47351129  0.28133854     0.82600
N409        N  0.52987873  0.50099546  0.30684727    -0.79900
C410        C  0.55454123  0.72742692  0.02093989     0.80100
N411        N  0.54105630  0.68749000  0.03781588    -0.78200
C412        C  0.54364240  0.67769360  0.08206045     0.82500
N413        N  0.56036798  0.70912426  0.11005169    -0.78100
C414        C  0.57418228  0.74960548  0.09315164     0.82600
N415        N  0.57093530  0.75792889  0.04884930    -0.79900
O416        O  0.38772610  0.48468746  0.11786170    -0.78600
C417        C  0.49917670  0.48754340  0.23360478     0.82400
O418        O  0.35770643  0.55806468  0.24148728    -0.79700
O419        O  0.50538117  0.61958396  0.23209261    -0.81200
O420        O  0.49097715  0.61918841  0.07640458    -0.81000
O421        O  0.40077933  0.53409829  0.06283822    -0.79600
Zn422      Zn  0.42532907  0.50361690  0.17021971     1.55700
O423        O  0.53089026  0.62066782  0.13796583    -0.81000
Cd424      Cd  0.43614783  0.58159724  0.09720689     1.59700
Cd425      Cd  0.39570009  0.60411025  0.19581648     1.59600
O426        O  0.39115039  0.62753721  0.08288142    -0.81000
O427        O  0.43762011  0.56629293  0.16270035    -1.91500
Cd428      Cd  0.49901477  0.57614514  0.18237065     1.59900
O429        O  0.35631979  0.64043455  0.14641561    -0.81000
O430        O  0.52041233  0.52176934  0.21934692    -0.79600
C431        C  0.35760078  0.51504561  0.24252599     0.82900
C432        C  0.37652196  0.50441113  0.08162197     0.82600
O433        O  0.46853135  0.47054164  0.21077167    -0.78600
C434        C  0.52155594  0.63623360  0.09942067     0.83400
O435        O  0.38124752  0.49430252  0.21594805    -0.78700
C436        C  0.36103760  0.64617665  0.10380044     0.83500
C437        C  0.48228869  0.65354084  0.23303964     0.83800
O438        O  0.44176930  0.65186445  0.22208381    -0.81100
C439        C  0.28743483  0.48907368  0.51743763     0.80100
N440        N  0.24714495  0.47818645  0.53282644    -0.78200
C441        C  0.23483555  0.43550266  0.53869140     0.82500
N442        N  0.26415898  0.40308734  0.52859512    -0.78100
C443        C  0.30592419  0.41405186  0.51487540     0.82600
N444        N  0.31673216  0.45724481  0.50910765    -0.79900
O445        O  0.59638534  0.89438237  0.22611469    -0.78600
C446        C  0.59895127  0.78262388  0.11960261     0.82400
O447        O  0.64524764  0.74463256  0.24194237    -0.79700
O448        O  0.73607759  0.79841835  0.12764573    -0.81200
O449        O  0.74379047  0.91987270  0.15173762    -0.81000
O450        O  0.65911015  0.92715541  0.24543531    -0.79600
Zn451      Zn  0.61627578  0.83550680  0.20611824     1.55700
O452        O  0.71277617  0.88781836  0.09401794    -0.81000
Cd453      Cd  0.70638332  0.89450012  0.20606148     1.59700
Cd454      Cd  0.70013508  0.79367413  0.23587854     1.59600
O455        O  0.75346166  0.87150134  0.24654262    -0.81000
O456        O  0.67590953  0.83967206  0.19255840    -1.91500
Cd457      Cd  0.68415251  0.83504163  0.12910869     1.59900
O458        O  0.70908355  0.84116562  0.29335102    -0.81000
O459        O  0.63408151  0.79806080  0.10202890    -0.79600
C460        C  0.61004349  0.76307686  0.25399115     0.82900
C461        C  0.61786230  0.92217032  0.24921301     0.82600
O462        O  0.58600009  0.79511315  0.15809982    -0.78600
C463        C  0.74272712  0.91213968  0.11011134     0.83400
O464        O  0.61368733  0.80315276  0.26383791    -0.78700
C465        C  0.73414566  0.87427658  0.28332795     0.83500
C466        C  0.76114762  0.77573203  0.15162297     0.83800
O467        O  0.75458787  0.76960393  0.19416735    -0.81100
C468        C  0.76115857  0.70682484  0.06495126     0.80100
N469        N  0.76783528  0.71381189  0.10878070    -0.78200
C470        C  0.78983742  0.74944151  0.12295332     0.82500
N471        N  0.81463241  0.77211158  0.09185849    -0.78100
C472        C  0.81483619  0.76105747  0.04756073     0.82600
N473        N  0.78571629  0.72999083  0.03385002    -0.79900
O474        O  0.95322336  0.12327233  0.57936476    -0.78600
C475        C  0.84948661  0.00227554  0.61442261     0.82400
O476        O  0.83969655  0.15358849  0.66977442    -0.79700
O477        O  0.88540673  0.01400537  0.75230971    -0.81200
O478        O  0.01305455  0.03336740  0.72103413    -0.81000
O479        O  0.01178921  0.12277793  0.62266048    -0.79600
Zn480      Zn  0.90633515  0.08435700  0.61126707     1.55700
O481        O  0.96457945  0.97896060  0.71480028    -0.81000
Cd482      Cd  0.98669383  0.08305541  0.67611332     1.59700
Cd483      Cd  0.88913990  0.12146659  0.71251725     1.59600
O484        O  0.99839538  0.13437546  0.71234747    -0.81000
O485        O  0.92247216  0.07847665  0.67353978    -1.91500
Cd486      Cd  0.91321962  0.01636805  0.69227878     1.59900
O487        O  0.93819745  0.16885242  0.73337907    -0.81000
O488        O  0.86658080  0.99118188  0.65152238    -0.79600
C489        C  0.83462709  0.14980648  0.62728260     0.82900
C490        C  0.98977046  0.14022704  0.59101385     0.82600
O491        O  0.86585690  0.03337908  0.58971560    -0.78600
C492        C  0.99809917  0.99503251  0.73330672     0.83400
O493        O  0.85926546  0.12557381  0.60510346    -0.78700
C494        C  0.97983341  0.16633110  0.73012392     0.83500
C495        C  0.86692423  0.03936248  0.77899593     0.83800
O496        O  0.86285241  0.08120613  0.76971121    -0.81100
C497        C  0.78025306  0.97026517  0.82070572     0.80100
N498        N  0.80115811  0.00830353  0.80814224    -0.78200
C499        C  0.84372467  0.01455652  0.81569944     0.82500
N500        N  0.86475926  0.98239527  0.84017559    -0.78100
C501        C  0.84301843  0.94497033  0.85598298     0.82600
N502        N  0.80115816  0.93865760  0.84461134    -0.79900
O503        O  0.91983336  0.94326816  0.01789382    -0.78600
C504        C  0.00547644  0.92696723  0.89013437     0.82400
O505        O  0.86727718  0.87211099  0.88327945    -0.79700
O506        O  0.00290514  0.79816250  0.90942865    -0.81200
O507        O  0.97544982  0.78729836  0.04474198    -0.81000
O508        O  0.90850284  0.88911248  0.06751263    -0.79600
Zn509      Zn  0.92895313  0.91797086  0.95584738     1.55700
O510        O  0.03096368  0.80356354  0.99930803    -0.81000
Cd511      Cd  0.93155537  0.83752406  0.02945305     1.59700
Cd512      Cd  0.89498873  0.81972661  0.92656501     1.59600
O513        O  0.87778815  0.80200463  0.03849966    -0.81000
O514        O  0.93609349  0.85463876  0.96516178    -1.91500
Cd515      Cd  0.99892375  0.84543342  0.95348111     1.59900
O516        O  0.84774588  0.78524587  0.97383180    -0.81000
O517        O  0.02488827  0.89593656  0.91163529    -0.79600
C518        C  0.86307816  0.91422366  0.88920751     0.82900
C519        C  0.89532178  0.92385250  0.04735812     0.82600
O520        O  0.97013907  0.94259144  0.90520235    -0.78600
C521        C  0.01136516  0.77675293  0.02655043     0.83400
O522        O  0.87610862  0.93207210  0.92440640    -0.78700
C523        C  0.84785637  0.78364889  0.01714517     0.83500
C524        C  0.97950621  0.77342749  0.88635167     0.83800
O525        O  0.93754501  0.77590790  0.88746270    -0.81100
O526        O  0.12898935  0.66024913  0.83107569    -0.78600
C527        C  0.24852283  0.55822670  0.81581540     0.82400
O528        O  0.12101371  0.52405535  0.90306826    -0.79700
O529        O  0.26776857  0.56059148  0.95947493    -0.81200
O530        O  0.23746705  0.69468214  0.96018526    -0.81000
O531        O  0.13944084  0.71028753  0.88384825    -0.79600
Zn532      Zn  0.17048596  0.60903578  0.84446874     1.55700
O533        O  0.29073412  0.64980278  0.93958610    -0.81000
Cd534      Cd  0.18216375  0.67531989  0.92508403     1.59700
Cd535      Cd  0.15594459  0.57143113  0.94412427     1.59600
O536        O  0.13803878  0.67907268  0.97441152    -0.81000
O537        O  0.18983618  0.61346598  0.90515511    -1.91500
Cd538      Cd  0.25337813  0.60175102  0.90812705     1.59900
O539        O  0.10890887  0.61123341  0.97555032    -0.81000
O540        O  0.26870782  0.56587423  0.85203199    -0.79600
C541        C  0.11358981  0.52793231  0.86098942     0.82900
C542        C  0.11722471  0.69491186  0.85175424     0.82600
O543        O  0.21533889  0.58044096  0.80390140    -0.78600
C544        C  0.27555380  0.67892282  0.96554002     0.83400
O545        O  0.12988977  0.55958545  0.83830875    -0.78700
C546        C  0.10767082  0.65247303  0.98500338     0.83500
C547        C  0.24497852  0.54639831  0.99196411     0.83800
O548        O  0.20309759  0.54762456  0.99132707    -0.81100
C549        C  0.02441861  0.72850893  0.78254960     0.80100
N550        N  0.99517871  0.74389580  0.81249069    -0.78200
C551        C  0.00520286  0.74480251  0.85631236     0.82500
N552        N  0.04568732  0.73069287  0.86945735    -0.78100
C553        C  0.07505048  0.71517702  0.83906316     0.82600
N554        N  0.06369564  0.71431519  0.79601930    -0.79900
C555        C  0.00809393  0.49687987  0.81590466     0.80100
N556        N  0.03937120  0.50708947  0.84565696    -0.78200
C557        C  0.08182320  0.50018368  0.83657140     0.82500
N558        N  0.09279703  0.48297428  0.79597293    -0.78100
C559        C  0.06145781  0.46998327  0.76655045     0.82600
N560        N  0.01926128  0.47746021  0.77686968    -0.79900
C561        C  0.31335751  0.46170430  0.78504561     0.80100
N562        N  0.28510903  0.43679816  0.76160272    -0.78200
C563        C  0.24462801  0.45222233  0.75366364     0.82500
N564        N  0.23321113  0.49347619  0.76774530    -0.78100
C565        C  0.26197127  0.51870421  0.79080351     0.82600
N566        N  0.30135790  0.50202067  0.79952606    -0.79900
C567        C  0.76690776  0.91511114  0.62635441     0.80100
N568        N  0.80441908  0.93828101  0.62492000    -0.78200
C569        C  0.80881013  0.97767936  0.60381633     0.82500
N570        N  0.77316923  0.99546105  0.58339553    -0.78100
C571        C  0.73446712  0.97182771  0.58286115     0.82600
N572        N  0.73199627  0.93133799  0.60389484    -0.79900
C573        C  0.98257376  0.23837670  0.51598734     0.80100
N574        N  0.00477441  0.26981782  0.53805070    -0.78200
C575        C  0.02677130  0.25982123  0.57547368     0.82500
N576        N  0.02543459  0.21675442  0.59209690    -0.78100
C577        C  0.00246936  0.18439950  0.57001638     0.82600
N578        N  0.98169699  0.19609497  0.53203215    -0.79900
C579        C  0.06337947  0.18727102  0.80958063     0.80100
N580        N  0.02582886  0.17487736  0.79046683    -0.78200
C581        C  0.01062125  0.19419449  0.75364477     0.82500
N582        N  0.03563093  0.22599218  0.73293944    -0.78100
C583        C  0.07386906  0.24010200  0.75160689     0.82600
N584        N  0.08742383  0.22099201  0.79047424    -0.79900
C585        C  0.49365978  0.77365721  0.23003862     0.80100
N586        N  0.53602817  0.78116628  0.23771628    -0.78200
C587        C  0.56398838  0.74748678  0.24577345     0.82500
N588        N  0.54796053  0.70444119  0.24606995    -0.78100
C589        C  0.50369771  0.69729324  0.24020339     0.82600
N590        N  0.47799024  0.73207506  0.23244055    -0.79900
C591        C  0.74318289  0.99641935  0.27774364     0.80100
N592        N  0.73178951  0.01017955  0.31781021    -0.78200
C593        C  0.72063858  0.98128568  0.35049999     0.82500
N594        N  0.71980888  0.93587534  0.34249159    -0.78100
C595        C  0.73273832  0.92143891  0.30095958     0.82600
N596        N  0.74454699  0.95270604  0.26977277    -0.79900
C597        C  0.30141958  0.74514258  0.06300717     0.80100
N598        N  0.32251093  0.71652268  0.09055163    -0.78200
C599        C  0.33286259  0.67561141  0.07597543     0.82500
N600        N  0.32140878  0.66391707  0.03331743    -0.78100
C601        C  0.29954158  0.69292751  0.00601548     0.82600
N602        N  0.28989400  0.73298506  0.02171928    -0.79900
C603        C  0.77386618  0.23672050  0.56423535     0.80100
N604        N  0.75053180  0.21117887  0.53582723    -0.78200
C605        C  0.75275037  0.16642186  0.53768197     0.82500
N606        N  0.77733910  0.14715711  0.57030856    -0.78100
C607        C  0.80037508  0.17195576  0.59996275     0.82600
N608        N  0.79905096  0.21684797  0.59595154    -0.79900
C609        C  0.26140261  0.46651680  0.30434977     0.80100
N610        N  0.28872164  0.49668770  0.28379951    -0.78200
C611        C  0.33010099  0.48546812  0.27295968     0.82500
N612        N  0.34389190  0.44314403  0.28368637    -0.78100
C613        C  0.31650100  0.41293710  0.30467180     0.82600
N614        N  0.27579180  0.42539372  0.31396899    -0.79900
C615        C  0.26054018  0.47185714  0.08775183     0.80100
N616        N  0.30431509  0.47099331  0.09236331    -0.78200
C617        C  0.33057346  0.49830146  0.06698644     0.82500
N618        N  0.31211182  0.52506151  0.03486007    -0.78100
C619        C  0.26778103  0.52518075  0.02998055     0.82600
N620        N  0.24328210  0.49975460  0.05729525    -0.79900
C621        C  0.53316843  0.99874699  0.28087656     0.80100
N622        N  0.55985019  0.97217580  0.25851635    -0.78200
C623        C  0.59257586  0.95099874  0.27818918     0.82500
N624        N  0.59763891  0.95373345  0.32341717    -0.78100
C625        C  0.56922197  0.97856573  0.34782130     0.82600
N626        N  0.53775770  0.00164945  0.32581655    -0.79900
C627        C  0.55470720  0.20823823  0.28786589     0.80100
N628        N  0.51364037  0.21871402  0.29974934    -0.78200
C629        C  0.49672733  0.20629380  0.33978840     0.82500
N630        N  0.52245173  0.18363624  0.36900139    -0.78100
C631        C  0.56452774  0.17318682  0.35803994     0.82600
N632        N  0.58026630  0.18504267  0.31680493    -0.79900
C633        C  0.28523615  0.21153234  0.60728176     0.80100
N634        N  0.29474813  0.20799881  0.56252006    -0.78200
C635        C  0.28791422  0.24288745  0.53355820     0.82500
N636        N  0.26736580  0.27919632  0.54950749    -0.78100
C637        C  0.26005312  0.28275563  0.59422189     0.82600
N638        N  0.27224845  0.25049728  0.62189426    -0.79900
C639        C  0.00801759  0.65520336  0.05234881     0.80100
N640        N  0.00003065  0.69956871  0.05412363    -0.78200
C641        C  0.02629738  0.72982878  0.03215529     0.82500
N642        N  0.06158199  0.71483209  0.00924553    -0.78100
C643        C  0.06990984  0.67041266  0.00830746     0.82600
N644        N  0.04272361  0.64157232  0.02901009    -0.79900
C645        C  0.79192491  0.97513927  0.01515955     0.80100
N646        N  0.76356340  0.95836463  0.04595589    -0.78200
C647        C  0.77660400  0.93135232  0.07952852     0.82500
N648        N  0.81969837  0.91995912  0.08196578    -0.78100
C649        C  0.84884079  0.93715198  0.05103822     0.82600
N650        N  0.83403853  0.96400802  0.01828403    -0.79900
C651        C  0.07181462  0.91477086  0.78879179     0.80100
N652        N  0.05343583  0.94226693  0.75817138    -0.78200
C653        C  0.01942826  0.96812762  0.76947939     0.82500
N654        N  0.00306065  0.96552301  0.81272877    -0.78100
C655        C  0.02307815  0.93915776  0.84430210     0.82600
N656        N  0.05703871  0.91494704  0.83119667    -0.79900
C657        C  0.73699769  0.46089654  0.27672828     0.01200
C658        C  0.75482076  0.46819800  0.31872778     0.04000
C659        C  0.72693233  0.47111466  0.35548305    -0.12000
C660        C  0.68222074  0.46459791  0.34996972     0.23300
C661        C  0.66779270  0.44320615  0.31142957    -0.12600
C662        C  0.69500865  0.44278631  0.27373988     0.04800
C663        C  0.65107525  0.49437899  0.37175162     0.27200
C664        C  0.62572318  0.48005860  0.40858897    -0.13300
C665        C  0.58368236  0.49703434  0.41318800     0.05300
C666        C  0.56593704  0.52001817  0.37687282    -0.09200
C667        C  0.59491460  0.54654944  0.35155686     0.06100
C668        C  0.63797670  0.53261178  0.34761539    -0.13600
Br669      Br  0.60903281  0.42151860  0.30838747    -0.05700
Br670      Br  0.81599569  0.48107917  0.32378147    -0.00100
Br671      Br  0.54826838  0.48687234  0.46503383     0.00400
Br672      Br  0.67594203  0.56135526  0.30477714    -0.04000
Br673      Br  0.67280402  0.42475902  0.21721847     0.00500
Br674      Br  0.74934838  0.48819632  0.41109551    -0.03300
Br675      Br  0.64649466  0.43561765  0.44896880    -0.04200
Br676      Br  0.57333307  0.59521661  0.31632912    -0.00200
C677        C  0.73377741  0.51554976  0.51805644     0.01200
C678        C  0.77782859  0.50151817  0.51862696     0.04000
C679        C  0.78807828  0.45763974  0.53163001    -0.12000
C680        C  0.75521305  0.42776923  0.54583511     0.23300
C681        C  0.71290445  0.44323273  0.55194804    -0.12600
C682        C  0.70228785  0.48699891  0.53950051     0.04800
C683        C  0.76397266  0.37941468  0.55117421     0.27200
C684        C  0.76602761  0.35296030  0.51315633    -0.13300
C685        C  0.77142366  0.30693254  0.51741108     0.05300
C686        C  0.77177998  0.28602881  0.56007186    -0.09200
C687        C  0.76864550  0.31263652  0.59831030     0.06100
C688        C  0.76651937  0.35918405  0.59376450    -0.13600
Br689      Br  0.66858593  0.40277017  0.57476722    -0.05700
Br690      Br  0.82540136  0.54096379  0.50216926    -0.00100
Br691      Br  0.77961515  0.27371804  0.46378394     0.00400
Br692      Br  0.76592090  0.39548279  0.64591531    -0.04000
Br693      Br  0.64404107  0.50539513  0.55347452     0.00500
Br694      Br  0.84704068  0.43712890  0.52800109    -0.03300
Br695      Br  0.75961185  0.37952056  0.45472436    -0.04200
Br696      Br  0.76263654  0.28594281  0.65704105    -0.00200
C697        C  0.79724371  0.60351122  0.69421785     0.01200
C698        C  0.79117451  0.61417351  0.73934312     0.04000
C699        C  0.82287524  0.60279991  0.77085184    -0.12000
C700        C  0.86161367  0.58318902  0.75656772     0.23300
C701        C  0.87035997  0.57917469  0.71066182    -0.12600
C702        C  0.83776964  0.58824051  0.67964204     0.04800
C703        C  0.89117910  0.56142538  0.78853838     0.27200
C704        C  0.92491136  0.58578707  0.80787497    -0.13300
C705        C  0.96131616  0.56364909  0.82470072     0.05300
C706        C  0.96471438  0.51718122  0.81959382    -0.09200
C707        C  0.92775616  0.49266010  0.80719360     0.06100
C708        C  0.89066817  0.51483429  0.79224102    -0.13600
Br709      Br  0.92524899  0.55603933  0.69079672    -0.05700
Br710      Br  0.73609003  0.63688568  0.75871235    -0.00100
Br711      Br  0.00710392  0.59846215  0.85092764     0.00400
Br712      Br  0.84078825  0.48172036  0.77233070    -0.04000
Br713      Br  0.84567502  0.57191516  0.61842678     0.00500
Br714      Br  0.81115889  0.60904342  0.83357105    -0.03300
Br715      Br  0.92302941  0.64960252  0.80690492    -0.04200
Br716      Br  0.92892709  0.42885383  0.80874388    -0.00200
C717        C  0.47288685  0.64081370  0.78576719     0.01200
C718        C  0.48061715  0.62095799  0.82805613     0.04000
C719        C  0.45897439  0.58049278  0.83731123    -0.12000
C720        C  0.42105428  0.57075440  0.81317349     0.23300
C721        C  0.40284801  0.60484588  0.78637427    -0.12600
C722        C  0.42922409  0.64140356  0.77341180     0.04800
C723        C  0.40612859  0.52431274  0.80812157     0.27200
C724        C  0.40837842  0.50439676  0.76558505    -0.13300
C725        C  0.38529299  0.46473936  0.75858584     0.05300
C726        C  0.35830239  0.44828436  0.79272471    -0.09200
C727        C  0.37173475  0.45684917  0.83617616     0.06100
C728        C  0.38912713  0.49899984  0.84455108    -0.13600
Br729      Br  0.34538390  0.59874386  0.76292927    -0.05700
Br730      Br  0.53355813  0.63407108  0.85850465    -0.00100
Br731      Br  0.37822776  0.44147590  0.69998345     0.00400
Br732      Br  0.38129144  0.52359178  0.90274686    -0.04000
Br733      Br  0.41039428  0.68459736  0.73025415     0.00500
Br734      Br  0.48751028  0.53576311  0.87301287    -0.03300
Br735      Br  0.43829539  0.53238204  0.71588194    -0.04200
Br736      Br  0.35617350  0.41587805  0.88321084    -0.00200
C737        C  0.76843495  0.86971109  0.64627556     0.01200
C738        C  0.80840728  0.85535055  0.66437151     0.04000
C739        C  0.82811407  0.81789563  0.64636475    -0.12000
C740        C  0.80596422  0.79447789  0.61368931     0.23300
C741        C  0.76045200  0.79918016  0.61181049    -0.12600
C742        C  0.74127011  0.83722028  0.62879612     0.04800
C743        C  0.82921377  0.77922168  0.57317921     0.27200
C744        C  0.84177447  0.81128519  0.54034051    -0.13300
C745        C  0.83569227  0.80215581  0.49497813     0.05300
C746        C  0.81848772  0.76087535  0.48310512    -0.09200
C747        C  0.81911857  0.72587180  0.51504632     0.06100
C748        C  0.82440311  0.73514456  0.56040104    -0.13600
Br749      Br  0.72497806  0.75510461  0.58552598    -0.05700
Br750      Br  0.83848919  0.88996480  0.70785633    -0.00100
Br751      Br  0.84210329  0.84838418  0.45029325     0.00400
Br752      Br  0.81708459  0.68964753  0.60570476    -0.04000
Br753      Br  0.67964543  0.84635843  0.62605587     0.00500
Br754      Br  0.88532936  0.80018994  0.66298232    -0.03300
Br755      Br  0.86210662  0.86910209  0.55706395    -0.04200
Br756      Br  0.80222945  0.66737924  0.49812084    -0.00200
C757        C  0.46256406  0.80943596  0.22323490     0.01200
C758        C  0.45785787  0.84034239  0.25705293     0.04000
C759        C  0.41593361  0.84997492  0.27208545    -0.12000
C760        C  0.37993753  0.82713840  0.25358267     0.23300
C761        C  0.38498164  0.81009497  0.21084526    -0.12600
C762        C  0.42694928  0.80057912  0.19551399     0.04800
C763        C  0.34976005  0.80292809  0.28478432     0.27200
C764        C  0.36362381  0.76069320  0.29920768    -0.13300
C765        C  0.37635748  0.75472490  0.34360136     0.05300
C766        C  0.36978055  0.78983464  0.37310378    -0.09200
C767        C  0.33836626  0.82210277  0.36112150     0.06100
C768        C  0.32777679  0.82789781  0.31604391    -0.13600
Br769      Br  0.33428812  0.79113828  0.17959322    -0.05700
Br770      Br  0.50779516  0.86309351  0.28777374    -0.00100
Br771      Br  0.40500385  0.70075915  0.36115503     0.00400
Br772      Br  0.29296615  0.87628880  0.29549422    -0.04000
Br773      Br  0.43555208  0.76580455  0.14317759     0.00500
Br774      Br  0.40945689  0.89227677  0.31889411    -0.03300
Br775      Br  0.36898375  0.71324131  0.25802448    -0.04200
Br776      Br  0.31537356  0.86349658  0.40277591    -0.00200
C777        C  0.50895619  0.80478175  0.74760113     0.01200
C778        C  0.53594520  0.76788718  0.75767259     0.04000
C779        C  0.54907463  0.75917302  0.80149163    -0.12000
C780        C  0.53056961  0.78231603  0.83676191     0.23300
C781        C  0.50257920  0.81776882  0.82766636    -0.12600
C782        C  0.49300558  0.83003226  0.78328631     0.04800
C783        C  0.53780896  0.76706714  0.88337171     0.27200
C784        C  0.50575622  0.74098435  0.90537756    -0.13300
C785        C  0.51124384  0.72746577  0.95004341     0.05300
C786        C  0.54975000  0.73889970  0.97280601    -0.09200
C787        C  0.58261306  0.76382348  0.94984607     0.06100
C788        C  0.57620174  0.77844354  0.90560660    -0.13600
Br789      Br  0.47846856  0.85020641  0.87656592    -0.05700
Br790      Br  0.55370884  0.72569990  0.71342603    -0.00100
Br791      Br  0.46386588  0.69618122  0.97992502     0.00400
Br792      Br  0.61983449  0.81459674  0.87532077    -0.04000
Br793      Br  0.46006576  0.88271765  0.77265745     0.00500
Br794      Br  0.59466349  0.71713251  0.81262237    -0.03300
Br795      Br  0.45364263  0.72442602  0.87411125    -0.04200
Br796      Br  0.63755602  0.77703357  0.97757377    -0.00200
C797        C  0.77783468  0.00852311  0.98114654     0.01200
C798        C  0.80869141  0.03802390  0.96015621     0.04000
C799        C  0.79440418  0.07624930  0.93807825    -0.12000
C800        C  0.75007188  0.08567585  0.93708463     0.23300
C801        C  0.71930661  0.05365975  0.95061910    -0.12600
C802        C  0.73285607  0.01484951  0.97258994     0.04800
C803        C  0.73758858  0.13213643  0.93100450     0.27200
C804        C  0.73396177  0.15831046  0.96907843    -0.13300
C805        C  0.73447689  0.20452615  0.96485677     0.05300
C806        C  0.74055612  0.22478226  0.92242666    -0.09200
C807        C  0.74244924  0.19801855  0.88394775     0.06100
C808        C  0.73913366  0.15182085  0.88842525    -0.13600
Br809      Br  0.65857923  0.06537602  0.94175435    -0.05700
Br810      Br  0.87103468  0.03130235  0.96319158    -0.00100
Br811      Br  0.72736916  0.23906382  0.01790245     0.00400
Br812      Br  0.74166016  0.11464277  0.83680998    -0.04000
Br813      Br  0.68829197  0.97256023  0.99138782     0.00500
Br814      Br  0.83590194  0.11857931  0.91274886    -0.03300
Br815      Br  0.73196099  0.13074760  0.02761182    -0.04200
Br816      Br  0.75559822  0.22236357  0.82516800    -0.00200
C817        C  0.28439606  0.98802673  0.81351505     0.01200
C818        C  0.30298152  0.94584837  0.81218431     0.04000
C819        C  0.27544254  0.90869550  0.81238151    -0.12000
C820        C  0.23106457  0.91478899  0.82029304     0.23300
C821        C  0.21674789  0.95499206  0.83824343    -0.12600
C822        C  0.24328685  0.99261454  0.83343681     0.04800
C823        C  0.19874257  0.88796508  0.79703479     0.27200
C824        C  0.18463370  0.90382738  0.75510158    -0.13300
C825        C  0.14023380  0.90276654  0.74546297     0.05300
C826        C  0.11109847  0.88834134  0.77912395    -0.09200
C827        C  0.12709293  0.85966365  0.81302349     0.06100
C828        C  0.17148897  0.86004259  0.82240268    -0.13600
Br829      Br  0.15890078  0.96042864  0.86229588    -0.05700
Br830      Br  0.36391527  0.94119219  0.79967927    -0.00100
Br831      Br  0.11997931  0.92316379  0.68824645     0.00400
Br832      Br  0.19380053  0.83090438  0.87487085    -0.04000
Br833      Br  0.22092850  0.04995229  0.84835118     0.00500
Br834      Br  0.29652232  0.85206945  0.79473366    -0.03300
Br835      Br  0.22423815  0.93438559  0.71494803    -0.04200
Br836      Br  0.08869870  0.82550446  0.85099526    -0.00200
C837        C  0.06224288  0.69407551  0.21926557     0.01200
C838        C  0.08131094  0.68431909  0.17817243     0.04000
C839        C  0.08271040  0.63990402  0.16518081    -0.12000
C840        C  0.05690706  0.60839191  0.18907600     0.23300
C841        C  0.05187445  0.61586760  0.23518780    -0.12600
C842        C  0.05491233  0.65952251  0.25052997     0.04800
C843        C  0.01806060  0.59242569  0.16389640     0.27200
C844        C  0.98251280  0.62125808  0.16254931    -0.13300
C845        C  0.96704431  0.63730450  0.12165108     0.05300
C846        C  0.98660889  0.62207607  0.08287479    -0.09200
C847        C  0.00519310  0.57952698  0.08575803     0.06100
C848        C  0.02324996  0.56566598  0.12657987    -0.13600
Br849      Br  0.02627828  0.57136431  0.27359911    -0.05700
Br850      Br  0.09864481  0.73160782  0.13800877    -0.00100
Br851      Br  0.92276247  0.68159899  0.11842409     0.00400
Br852      Br  0.05362746  0.51123402  0.13202420    -0.04000
Br853      Br  0.03848802  0.67338626  0.31080432     0.00500
Br854      Br  0.11243467  0.62397441  0.11150990    -0.03300
Br855      Br  0.95793514  0.64041303  0.21592791    -0.04200
Br856      Br  0.01006509  0.54413172  0.03347407    -0.00200
C857        C  0.29615375  0.53488769  0.50396615     0.01200
C858        C  0.30505491  0.54572910  0.45871071     0.04000
C859        C  0.30119264  0.58964228  0.44363713    -0.12000
C860        C  0.28789508  0.62189765  0.47358463     0.23300
C861        C  0.28191640  0.61163355  0.51919330    -0.12600
C862        C  0.28678666  0.56814582  0.53448948     0.04800
C863        C  0.27843088  0.66670054  0.45784475     0.27200
C864        C  0.30813089  0.70046642  0.46730756    -0.13300
C865        C  0.29409321  0.74415437  0.46841558     0.05300
C866        C  0.25105810  0.75436664  0.45544492    -0.09200
C867        C  0.22278726  0.72040955  0.44127007     0.06100
C868        C  0.23637130  0.67639178  0.44328448    -0.13600
Br869      Br  0.26419866  0.65660311  0.56029484    -0.05700
Br870      Br  0.31836592  0.50073538  0.41608160    -0.00100
Br871      Br  0.33365495  0.78751648  0.49255844     0.00400
Br872      Br  0.19620764  0.62884438  0.43037468    -0.04000
Br873      Br  0.27916806  0.55374233  0.59709647     0.00500
Br874      Br  0.31134662  0.60555930  0.38176638    -0.03300
Br875      Br  0.36674410  0.68544827  0.48371317    -0.04200
Br876      Br  0.16352930  0.73246617  0.42510834    -0.00200
C877        C  0.27028187  0.17316966  0.63636404     0.01200
C878        C  0.24346677  0.18022426  0.67514598     0.04000
C879        C  0.20925025  0.15029515  0.68520925    -0.12000
C880        C  0.19996041  0.11713315  0.65524014     0.23300
C881        C  0.23501109  0.10152546  0.62954578    -0.12600
C882        C  0.26988367  0.13064413  0.61880264     0.04800
C883        C  0.15726873  0.12025521  0.63252358     0.27200
C884        C  0.13622057  0.08045844  0.62270206    -0.13300
C885        C  0.13405612  0.06787080  0.57787796     0.05300
C886        C  0.15172258  0.09707975  0.54480008    -0.09200
C887        C  0.15875940  0.14167472  0.55492339     0.06100
C888        C  0.15586425  0.15394483  0.59949580    -0.13600
Br889      Br  0.23185850  0.04285851  0.60635751    -0.05700
Br890      Br  0.24755117  0.23194491  0.71230942    -0.00100
Br891      Br  0.11628772  0.00855704  0.56358077     0.00400
Br892      Br  0.15730321  0.21495466  0.61561626    -0.04000
Br893      Br  0.31524843  0.11571436  0.57820390     0.00500
Br894      Br  0.16882349  0.15880405  0.73339462    -0.03300
Br895      Br  0.11913847  0.04163344  0.67105382    -0.04200
Br896      Br  0.17761640  0.18373895  0.50963427    -0.00200
C897        C  0.00251570  0.75093439  0.50220861     0.01200
C898        C  0.97550117  0.72140280  0.52776351     0.04000
C899        C  0.98065161  0.71864265  0.57383105    -0.12000
C900        C  0.01613854  0.73986973  0.59352746     0.23300
C901        C  0.04773679  0.76206508  0.56726400    -0.12600
C902        C  0.04063430  0.76845466  0.52159117     0.04800
C903        C  0.01981780  0.73809345  0.64202059     0.27200
C904        C  0.00902401  0.77534573  0.66705385    -0.13300
C905        C  0.00851249  0.77208705  0.71365978     0.05300
C906        C  0.01679907  0.73092157  0.73475200    -0.09200
C907        C  0.02659563  0.69358643  0.70928707     0.06100
C908        C  0.03000081  0.69773116  0.66307697    -0.13600
Br909      Br  0.09971432  0.78495849  0.59446427    -0.05700
Br910      Br  0.93202881  0.68291851  0.50214402    -0.00100
Br911      Br  0.99997060  0.82486377  0.74780725     0.00400
Br912      Br  0.04919040  0.64835397  0.62836435    -0.04000
Br913      Br  0.08417355  0.80003933  0.48626818     0.00500
Br914      Br  0.93750220  0.68774760  0.61049060    -0.03300
Br915      Br  0.99610527  0.83098143  0.63740341    -0.04200
Br916      Br  0.03485346  0.63629706  0.73735205    -0.00200
C917        C  0.92676380  0.26753207  0.25042534     0.01200
C918        C  0.93911057  0.22775082  0.27182923     0.04000
C919        C  0.93346085  0.22264824  0.31793049    -0.12000
C920        C  0.91296683  0.25603339  0.34202903     0.23300
C921        C  0.89279589  0.29123031  0.31952393    -0.12600
C922        C  0.90090853  0.29811595  0.27373890     0.04800
C923        C  0.92366102  0.26007810  0.38942799     0.27200
C924        C  0.90185314  0.23421071  0.42208039    -0.13300
C925        C  0.91902115  0.23069499  0.46512331     0.05300
C926        C  0.96007228  0.24984925  0.47420703    -0.09200
C927        C  0.98056096  0.27791785  0.44184229     0.06100
C928        C  0.96129270  0.28433972  0.40020645    -0.13600
Br929      Br  0.85902365  0.33264045  0.35306194    -0.05700
Br930      Br  0.96631672  0.18134014  0.23865662    -0.00100
Br931      Br  0.88552417  0.20041127  0.51132603     0.00400
Br932      Br  0.98871790  0.32356338  0.35623013    -0.04000
Br933      Br  0.88188279  0.35269674  0.24611218     0.00500
Br934      Br  0.95931794  0.17311003  0.34894865    -0.03300
Br935      Br  0.85079623  0.20068360  0.40641437    -0.04200
Br936      Br  0.03736959  0.30397951  0.45112210    -0.00200
C937        C  0.88978836  0.26161058  0.94430109     0.01200
C938        C  0.89368059  0.26804040  0.89800806     0.04000
C939        C  0.92122053  0.23949244  0.87448871    -0.12000
C940        C  0.94091324  0.20435853  0.89844599     0.23300
C941        C  0.92164221  0.19070646  0.93935658    -0.12600
C942        C  0.88905477  0.21705394  0.95803970     0.04800
C943        C  0.98627062  0.19110913  0.88833547     0.27200
C944        C  0.99699992  0.14660582  0.87888895    -0.13300
C945        C  0.04070832  0.13677763  0.86829833     0.05300
C946        C  0.06825347  0.17290685  0.85671283    -0.09200
C947        C  0.06342643  0.20943490  0.88340955     0.06100
C948        C  0.02076822  0.22247113  0.89254586    -0.13600
Br949      Br  0.94964362  0.14799350  0.97607181    -0.05700
Br950      Br  0.86920964  0.31960763  0.87047693    -0.00100
Br951      Br  0.05659626  0.07936490  0.84777156     0.00400
Br952      Br  0.01081124  0.28412568  0.90090667    -0.04000
Br953      Br  0.86258807  0.20230437  0.01449194     0.00500
Br954      Br  0.93651541  0.25211838  0.81342903    -0.03300
Br955      Br  0.95224363  0.10242209  0.87083625    -0.04200
Br956      Br  0.11206458  0.24836058  0.88958380    -0.00200
C957        C  0.49841941  0.02091649  0.25468823     0.01200
C958        C  0.50295495  0.02379601  0.20732377     0.04000
C959        C  0.46621859  0.02724013  0.18051656    -0.12000
C960        C  0.42562504  0.03323116  0.20041252     0.23300
C961        C  0.42220419  0.03964073  0.24667437    -0.12600
C962        C  0.45830755  0.03273936  0.27415433     0.04800
C963        C  0.38571847  0.02590575  0.17488427     0.27200
C964        C  0.36790928  0.05939495  0.14799654    -0.13300
C965        C  0.32458774  0.05520117  0.13478597     0.05300
C966        C  0.29789921  0.02193642  0.15523116    -0.09200
C967        C  0.31820896  0.98397907  0.17307657     0.06100
C968        C  0.36272475  0.98591312  0.18177175    -0.13600
Br969      Br  0.36666365  0.05433657  0.27240495    -0.05700
Br970      Br  0.55906955  0.02534681  0.17760870    -0.00100
Br971      Br  0.30250967  0.09436025  0.08893566     0.00400
Br972      Br  0.39208757  0.93541135  0.20603050    -0.04000
Br973      Br  0.45076877  0.03822932  0.33768775     0.00500
Br974      Br  0.47090342  0.01933307  0.11696162    -0.03300
Br975      Br  0.40096699  0.11212499  0.13267858    -0.04200
Br976      Br  0.28662467  0.92987954  0.18661264    -0.00200
C977        C  0.23365247  0.99804781  0.99828017     0.01200
C978        C  0.25686509  0.96398545  0.97755848     0.04000
C979        C  0.25667386  0.92129441  0.99644794    -0.12000
C980        C  0.24050011  0.91389718  0.03993105     0.23300
C981        C  0.21764613  0.94721436  0.06143736    -0.12600
C982        C  0.21298556  0.98883722  0.04029342     0.04800
C983        C  0.25406218  0.87341765  0.06406433     0.27200
C984        C  0.22524619  0.83719620  0.07006874    -0.13300
C985        C  0.24195836  0.79511591  0.07948384     0.05300
C986        C  0.28699618  0.78849764  0.07707289    -0.09200
C987        C  0.31556637  0.82497827  0.07309274     0.06100
C988        C  0.29887861  0.86780041  0.07098848    -0.13600
Br989      Br  0.19298028  0.93573052  0.11995055    -0.05700
Br990      Br  0.29331937  0.97498772  0.92623635    -0.00100
Br991      Br  0.20360506  0.74466389  0.08775700     0.00400
Br992      Br  0.33789520  0.91841331  0.06934847    -0.04000
Br993      Br  0.18150451  0.03307221  0.07260619     0.00500
Br994      Br  0.27944112  0.87248464  0.96302917    -0.03300
Br995      Br  0.16419066  0.84319418  0.05832573    -0.04200
Br996      Br  0.37611115  0.81643746  0.06011011    -0.00200
C997        C  0.23204823  0.43470268  0.10337836     0.01200
C998        C  0.24472842  0.39528759  0.08429101     0.04000
C999        C  0.22776885  0.38560366  0.04216397    -0.12000
C1000       C  0.19160578  0.41018785  0.02594759     0.23300
C1001       C  0.16990003  0.43838332  0.05595665    -0.12600
C1002       C  0.18797763  0.44458050  0.09849625     0.04800
C1003       C  0.17952042  0.40929215  0.97795940     0.27200
C1004       C  0.21078646  0.41996266  0.94409588    -0.13300
C1005       C  0.20341788  0.40525822  0.90059545     0.05300
C1006       C  0.16943859  0.37544690  0.89406139    -0.09200
C1007       C  0.13217110  0.38521178  0.91876128     0.06100
C1008       C  0.13769047  0.39499085  0.96407452    -0.13600
Br1009     Br  0.12561660  0.47858933  0.03566203    -0.05700
Br1010     Br  0.29472665  0.36592050  0.10793347    -0.00100
Br1011     Br  0.24657024  0.41055528  0.85546931     0.00400
Br1012     Br  0.09206765  0.37834291  0.00535143    -0.04000
Br1013     Br  0.16509317  0.48731512  0.13778750     0.00500
Br1014     Br  0.26015327  0.34572709  0.00598338    -0.03300
Br1015     Br  0.26514658  0.44858721  0.95640349    -0.04200
Br1016     Br  0.07678709  0.37578230  0.89270341    -0.00200
C1017       C  0.92712478  0.00898536  0.12421964     0.01200
C1018       C  0.90206969  0.97623220  0.14624525     0.04000
C1019       C  0.85871866  0.98522513  0.15632846    -0.12000
C1020       C  0.84091347  0.02606116  0.14200401     0.23300
C1021       C  0.86264558  0.05193678  0.10969273    -0.12600
C1022       C  0.90535516  0.04131287  0.09867954     0.04800
C1023       C  0.80928950  0.04694354  0.17122323     0.27200
C1024       C  0.76492713  0.03890167  0.16523493    -0.13300
C1025       C  0.73908204  0.02968737  0.20269749     0.05300
C1026       C  0.75864307  0.02840748  0.24460388    -0.09200
C1027       C  0.79922208  0.04893797  0.25080641     0.06100
C1028       C  0.82451069  0.05950528  0.21324075    -0.13600
Br1029     Br  0.83785423  0.10666237  0.08880562    -0.05700
Br1030     Br  0.92932918  0.92327640  0.16860638    -0.00100
Br1031     Br  0.67838111  0.01641140  0.19705630     0.00400
Br1032     Br  0.88310104  0.08141874  0.21962146    -0.04000
Br1033     Br  0.93514806  0.07489342  0.05367204     0.00500
Br1034     Br  0.82819480  0.94663932  0.19792369    -0.03300
Br1035     Br  0.74078593  0.03754408  0.10682037    -0.04200
Br1036     Br  0.82336218  0.05477512  0.30952108    -0.00200
C1037       C  0.73691918  0.96185176  0.80292539     0.01200
C1038       C  0.72848294  0.97393024  0.75808410     0.04000
C1039       C  0.68587588  0.97506989  0.74317006    -0.12000
C1040       C  0.65183595  0.96535752  0.77317841     0.23300
C1041       C  0.66002926  0.94888033  0.81625647    -0.12600
C1042       C  0.70293918  0.94581867  0.83084715     0.04800
C1043       C  0.60890910  0.98157046  0.76192055     0.27200
C1044       C  0.59845653  0.02485895  0.77397211    -0.13300
C1045       C  0.56176475  0.04484916  0.75622053     0.05300
C1046       C  0.53583143  0.02148899  0.72569235    -0.09200
C1047       C  0.54579540  0.97747651  0.71491894     0.06100
C1048       C  0.58222487  0.95737553  0.73350334    -0.13600
Br1049     Br  0.61217130  0.93591267  0.85642170    -0.05700
Br1050     Br  0.77431676  0.99097211  0.71665537    -0.00100
Br1051     Br  0.54942713  0.10518848  0.77257871     0.00400
Br1052     Br  0.59711485  0.89750095  0.71894364    -0.04000
Br1053     Br  0.71409559  0.92273148  0.88976040     0.00500
Br1054     Br  0.67365740  0.99508490  0.68303353    -0.03300
Br1055     Br  0.63610379  0.05779118  0.81286460    -0.04200
Br1056     Br  0.50966704  0.94395547  0.67569814    -0.00200
C1057       C  0.62204404  0.27272395  0.52091282     0.01200
C1058       C  0.61571986  0.31309659  0.49806566     0.04000
C1059       C  0.58318921  0.34034721  0.51608352    -0.12000
C1060       C  0.57115926  0.33350527  0.56164988     0.23300
C1061       C  0.59884255  0.30691020  0.58823778    -0.12600
C1062       C  0.62653864  0.27700135  0.56689152     0.04800
C1063       C  0.52601685  0.34340146  0.57694591     0.27200
C1064       C  0.51106668  0.38752151  0.57878354    -0.13300
C1065       C  0.46775174  0.39534173  0.59204572     0.05300
C1066       C  0.44348304  0.36004381  0.61119625    -0.09200
C1067       C  0.45160351  0.31881653  0.59306004     0.06100
C1068       C  0.49530003  0.30837199  0.58515146    -0.13600
Br1069     Br  0.59577703  0.30708740  0.65175602    -0.05700
Br1070     Br  0.63101601  0.31572738  0.43593671    -0.00100
Br1071     Br  0.44575562  0.45411148  0.59693294     0.00400
Br1072     Br  0.51205926  0.24855511  0.59910389    -0.04000
Br1073     Br  0.65766017  0.23267525  0.59965744     0.00500
Br1074     Br  0.54679551  0.37259459  0.47554288    -0.03300
Br1075     Br  0.55096744  0.43646673  0.57307612    -0.04200
Br1076     Br  0.40667277  0.27403118  0.59588443    -0.00200
C1077       C  0.56715588  0.21646935  0.24087471     0.01200
C1078       C  0.58212624  0.25861814  0.22653853     0.04000
C1079       C  0.58154768  0.27051078  0.18091362    -0.12000
C1080       C  0.56387191  0.24109383  0.14972144     0.23300
C1081       C  0.55011022  0.19835578  0.16403926    -0.12600
C1082       C  0.55264033  0.18600735  0.20934993     0.04800
C1083       C  0.55648863  0.25664847  0.10300025     0.27200
C1084       C  0.52287067  0.28674405  0.09385810    -0.13300
C1085       C  0.51672209  0.30312000  0.05022145     0.05300
C1086       C  0.54236203  0.28768543  0.01498074    -0.09200
C1087       C  0.57502560  0.25645809  0.02370365     0.06100
C1088       C  0.58278492  0.24178467  0.06776922    -0.13600
Br1089     Br  0.52409295  0.15801129  0.12268846    -0.05700
Br1090     Br  0.59984541  0.30117102  0.26986916    -0.00100
Br1091     Br  0.47185991  0.34549636  0.03798666     0.00400
Br1092     Br  0.62828872  0.20008885  0.07982838    -0.04000
Br1093     Br  0.53199132  0.12876913  0.22974390     0.00500
Br1094     Br  0.60245168  0.32816006  0.16123005    -0.03300
Br1095     Br  0.48324152  0.30328076  0.14059526    -0.04200
Br1096     Br  0.60727242  0.23179979  0.97493332    -0.00200
C1097       C  0.98970889  0.46020370  0.27807627     0.01200
C1098       C  0.00245790  0.47326459  0.32111914     0.04000
C1099       C  0.04660831  0.47237475  0.33239309    -0.12000
C1100       C  0.07640358  0.45171824  0.30400958     0.23300
C1101       C  0.06075124  0.42675078  0.26831171    -0.12600
C1102       C  0.01732625  0.43119202  0.25505462     0.04800
C1103       C  0.12370176  0.46038566  0.30829658     0.27200
C1104       C  0.14473170  0.48986146  0.27790987    -0.13300
C1105       C  0.18981308  0.49685671  0.27930543     0.05300
C1106       C  0.21438512  0.47416546  0.31168648    -0.09200
C1107       C  0.19228805  0.44922112  0.34576266     0.06100
C1108       C  0.14754110  0.44051821  0.34269397    -0.13600
Br1109     Br  0.09976018  0.38965192  0.23563514    -0.05700
Br1110     Br  0.96067907  0.49222167  0.36478892    -0.00100
Br1111     Br  0.21669546  0.53630056  0.23531708     0.00400
Br1112     Br  0.11955941  0.39875542  0.38350159    -0.04000
Br1113     Br  0.99620154  0.39719336  0.20604209     0.00500
Br1114     Br  0.06667168  0.50464415  0.38319134    -0.03300
Br1115     Br  0.11208731  0.51903495  0.23241237    -0.04200
Br1116     Br  0.22269541  0.42733603  0.39758797    -0.00200
C1117       C  0.65747451  0.47443109  0.02689565     0.01200
C1118       C  0.61840348  0.49585298  0.01643923     0.04000
C1119       C  0.61694517  0.54179653  0.02360355    -0.12000
C1120       C  0.65154638  0.56104849  0.04719866     0.23300
C1121       C  0.67945779  0.53298282  0.07190702    -0.12600
C1122       C  0.67523902  0.48717444  0.06687359     0.04800
C1123       C  0.66285519  0.60841352  0.04316929     0.27200
C1124       C  0.68816939  0.62345171  0.00646397    -0.13300
C1125       C  0.71960348  0.65710062  0.01192010     0.05300
C1126       C  0.72302311  0.67813170  0.05352677    -0.09200
C1127       C  0.68970063  0.66928674  0.08632701     0.06100
C1128       C  0.66154601  0.63311659  0.08185892    -0.13600
Br1129     Br  0.72988301  0.55628766  0.10009271    -0.05700
Br1130     Br  0.57570015  0.46584576  0.98158037    -0.00100
Br1131     Br  0.75901650  0.67041632  0.96293782     0.00400
Br1132     Br  0.62838966  0.61073734  0.13273071    -0.04000
Br1133     Br  0.70847575  0.44468390  0.09908633     0.00500
Br1134     Br  0.57215267  0.57764902  0.99813010    -0.03300
Br1135     Br  0.68266429  0.59503739  0.94993789    -0.04200
Br1136     Br  0.68050953  0.70385783  0.13908631    -0.00200
loop_ 
_geom_bond_atom_site_label_1 
_geom_bond_atom_site_label_2 
_geom_bond_distance 
_geom_bond_site_symmetry_2 
_ccdc_geom_bond_type 
O1           C17   1.281       .  A
O1           Zn7   2.053       .  S
C2           O18   1.281       .  A
C2           O15   1.279       .  A
C2          C319   1.503       .  S
O3           C16   1.290       .  A
O3          Cd10   2.195       .  S
O4           C22   1.264       .  A
O4          Cd13   2.032       .  S
O5           C19   1.283       .  A
O5           Cd9   2.087       .  S
O6           C17   1.286       .  A
O6           Cd9   2.134       .  S
Zn7          O18   2.012       .  S
Zn7          O20   1.964       .  S
Zn7          O12   1.930       .  S
O8           C19   1.283       .  A
O8          Cd13   2.132       .  S
Cd9          O11   1.998       .  S
Cd9          O12   1.964       .  S
Cd10         O14   2.198       .  S
Cd10         O23   2.132       .  S
Cd10         O12   1.994       .  S
O11          C21   1.252       .  A
O12         Cd13   2.011       .  S
Cd13         O15   2.104       .  S
O14          C21   1.292       .  A
C16          O20   1.263       .  A
C16         C313   1.499       .  S
C17         C307   1.505       .  S
C19         C295   1.497       .  S
C21         C289   1.483       .  S
C22          O23   1.286       .  A
C22         C301   1.477       .  S
O24          C40   1.289       .  A
O24         Zn30   2.097       .  S
C25          O41   1.291       .  A
C25          O38   1.275       .  A
C25         C271   1.530       .  S
O26          C39   1.291       .  A
O26         Cd33   2.205       .  S
O27          C45   1.262       .  A
O27         Cd36   1.987       .  S
O28          C42   1.280       .  A
O28         Cd32   2.082       .  S
O29          C40   1.282       .  A
O29         Cd32   2.100       .  S
Zn30         O41   2.148       .  S
Zn30         O43   1.906       .  S
Zn30         O35   1.940       .  S
O31          C42   1.275       .  A
O31         Cd36   2.060       .  S
Cd32         O34   2.031       .  S
Cd32         O35   1.988       .  S
Cd33         O37   2.209       .  S
Cd33         O46   2.196       .  S
Cd33         O35   2.030       .  S
O34          C44   1.265       .  A
O35         Cd36   2.034       .  S
Cd36         O38   2.117       .  S
O37          C44   1.295       .  A
C39          O43   1.253       .  A
C39          C78   1.499       .  S
C40         C327   1.520       .  S
C42         C303   1.498       .  S
C44         C321   1.505       .  S
C45          O46   1.298       .  A
C45         C253   1.482       .  S
O47          C63   1.288       .  A
O47         Zn53   2.122       .  S
C48          O64   1.283   1_556  A
C48          O61   1.277       .  A
C48          C74   1.501       .  S
O49          C62   1.292       .  A
O49         Cd56   2.181       .  S
O50          C68   1.265       .  A
O50         Cd59   2.019       .  S
O51          C65   1.277   1_554  A
O51         Cd55   2.059       .  S
O52          C63   1.279       .  A
O52         Cd55   2.092       .  S
Zn53         O64   2.062       .  S
Zn53         O66   1.876       .  S
Zn53         O58   1.947       .  S
O54          C65   1.277       .  A
O54         Cd59   2.086       .  S
Cd55         O57   1.978       .  S
Cd55         O58   1.986       .  S
Cd56         O60   2.164       .  S
Cd56         O69   2.232       .  S
Cd56         O58   2.011       .  S
O57          C67   1.259       .  A
O58         Cd59   2.022   1_554  S
Cd59         O61   2.088       .  S
O60          C67   1.289       .  A
C62          O66   1.250       .  A
C62         C325   1.480       .  S
C63          C80   1.520       .  S
C65         C172   1.500       .  S
C67         C178   1.472       .  S
C68          O69   1.302   1_556  A
C68         C283   1.503       .  S
C70        C1117   1.491   1_556  S
C70          N71   1.336       .  A
C70          N75   1.365       .  A
N71          C72   1.343       .  A
C72         C103   1.465       .  S
C72          N73   1.377       .  A
N73          C74   1.375       .  A
C74          N75   1.365       .  A
C76        C1097   1.503       .  S
C76          N77   1.362       .  A
C76          N81   1.365       .  A
N77          C78   1.354       .  A
C78          N79   1.383       .  A
N79          C80   1.370       .  A
C80          N81   1.361       .  A
O82          C98   1.286       .  A
O82         Zn88   2.099       .  S
C83          O99   1.291       .  A
C83          O96   1.276       .  A
C83         C285   1.497       .  S
O84          C97   1.290       .  A
O84         Cd91   2.199       .  S
O85         C103   1.264       .  A
O85         Cd94   2.033       .  S
O86         C100   1.278       .  A
O86         Cd90   2.088       .  S
O87          C98   1.278       .  A
O87         Cd90   2.042       .  S
Zn88         O99   2.079       .  S
Zn88        O101   1.974       .  S
Zn88         O93   1.923       .  S
O89         C100   1.283       .  A
O89         Cd94   2.093       .  S
Cd90         O92   2.001       .  S
Cd90         O93   1.985       .  S
Cd91         O95   2.147       .  S
Cd91        O104   2.080       .  S
Cd91         O93   1.975       .  S
O92         C102   1.258       .  A
O93         Cd94   1.989       .  S
Cd94         O96   2.079       .  S
O95         C102   1.291       .  A
C97         O101   1.262       .  A
C97         C132   1.500       .  S
C98         C136   1.489       .  S
C100        C315   1.491       .  S
C102        C309   1.474       .  S
C103        O104   1.284       .  A
O105        C121   1.280       .  A
O105       Zn111   2.027       .  S
C106        O122   1.280       .  A
C106        O119   1.283       .  A
C106        C144   1.482       .  S
O107        C120   1.286       .  A
O107       Cd114   2.160       .  S
O108        C126   1.255       .  A
O108       Cd117   2.024       .  S
O109        C123   1.283       .  A
O109       Cd113   2.139       .  S
O110        C121   1.286       .  A
O110       Cd113   2.117       .  S
Zn111       O122   2.034       .  S
Zn111       O124   1.936       .  S
Zn111       O116   1.889       .  S
O112        C123   1.281       .  A
O112       Cd117   2.094       .  S
Cd113       O115   2.016       .  S
Cd113       O116   1.954       .  S
Cd114       O118   2.195       .  S
Cd114       O127   2.203       .  S
Cd114       O116   2.017       .  S
O115        C125   1.270       .  A
O116       Cd117   1.975       .  S
Cd117       O119   2.142       .  S
O118        C125   1.297       .  A
C120        O124   1.259       .  A
C120        C138   1.481       .  S
C121        C130   1.483       .  S
C123        C160   1.501       .  S
C125        C156   1.487       .  S
C126        O127   1.273       .  A
C126        C277   1.497       .  S
C128       C1086   1.475   1_556  S
C128        N129   1.354       .  A
C128        N133   1.367       .  A
N129        C130   1.349       .  A
C130        N131   1.373       .  A
N131        C132   1.373       .  A
C132        N133   1.367       .  A
C134       C1066   1.481       .  S
C134        N135   1.355       .  A
C134        N139   1.363       .  A
N135        C136   1.345       .  A
C136        N137   1.363       .  A
N137        C138   1.377       .  A
C138        N139   1.362       .  A
C140       C1046   1.463       .  S
C140        N141   1.354       .  A
C140        N145   1.342       .  A
N141        C142   1.358       .  A
C142        C206   1.505       .  S
C142        N143   1.386       .  A
N143        C144   1.383       .  A
C144        N145   1.339       .  A
C146       C1017   1.482       .  S
C146        N147   1.352       .  A
C146        N151   1.364       .  A
N147        C148   1.345   1_655  A
C148        C202   1.470       .  S
C148        N149   1.371       .  A
N149        C150   1.363       .  A
C150        C244   1.492       .  S
C150        N151   1.358   1_455  A
C152       C1006   1.485       .  S
C152        N153   1.355       .  A
C152        N157   1.362       .  A
N153        C154   1.344       .  A
C154        C183   1.501   1_556  S
C154        N155   1.369       .  A
N155        C156   1.382       .  A
C156        N157   1.362       .  A
C158        C977   1.490   1_545  S
C158        N159   1.363       .  A
C158        N163   1.352       .  A
N159        C160   1.360       .  A
C160        N161   1.376       .  A
N161        C162   1.376       .  A
C162        C203   1.478   1_556  S
C162        N163   1.351       .  A
C164        C966   1.489       .  S
C164        N165   1.358       .  A
C164        N169   1.365       .  A
N165        C166   1.349       .  A
C166        C200   1.500       .  S
C166        N167   1.369       .  A
N167        C168   1.379       .  A
C168        C243   1.501   1_545  S
C168        N169   1.358       .  A
C170        C937   1.493       .  S
C170        N171   1.361       .  A
C170        N175   1.363       .  A
N171        C172   1.365       .  A
C172        N173   1.375   1_556  A
N173        C174   1.376       .  A
C174        C197   1.499   1_655  S
C174        N175   1.346   1_554  A
C176        C917   1.475       .  S
C176        N177   1.356       .  A
C176        N181   1.362       .  A
N177        C178   1.354       .  A
C178        N179   1.372       .  A
N179        C180   1.363   1_655  A
C180        C198   1.489       .  S
C180        N181   1.356   1_455  A
O182        C198   1.287       .  A
O182       Zn188   2.059       .  S
C183        O199   1.288       .  A
C183        O196   1.279       .  A
O184        C197   1.292       .  A
O184       Cd191   2.191       .  S
O185        C203   1.258       .  A
O185       Cd194   1.970       .  S
O186        C200   1.275       .  A
O186       Cd190   2.083       .  S
O187        C198   1.276       .  A
O187       Cd190   2.050       .  S
Zn188       O199   2.062       .  S
Zn188       O201   1.958       .  S
Zn188       O193   1.909       .  S
O189        C200   1.285       .  A
O189       Cd194   2.108       .  S
Cd190       O192   1.976       .  S
Cd190       O193   1.967       .  S
Cd191       O195   2.157       .  S
Cd191       O204   2.197   1_554  S
Cd191       O193   2.010       .  S
O192        C202   1.259       .  A
O193       Cd194   1.971       .  S
Cd194       O196   2.106       .  S
O195        C202   1.291       .  A
C197        O201   1.258       .  A
C203        O204   1.289   1_554  A
O205        C221   1.281       .  A
O205       Zn211   2.086       .  S
C206        O222   1.286       .  A
C206        O219   1.279       .  A
O207        C220   1.292       .  A
O207       Cd214   2.220       .  S
O208        C226   1.252       .  A
O208       Cd217   1.990       .  S
O209        C223   1.280       .  A
O209       Cd213   2.146   1_545  S
O210        C221   1.285       .  A
O210       Cd213   2.083       .  S
Zn211       O222   2.062   1_565  S
Zn211       O224   1.957       .  S
Zn211       O216   1.930       .  S
O212        C223   1.280       .  A
O212       Cd217   2.134       .  S
Cd213       O215   1.968       .  S
Cd213       O216   2.000       .  S
Cd214       O218   2.216       .  S
Cd214       O227   2.172       .  S
Cd214       O216   2.039       .  S
O215        C225   1.256       .  A
O216       Cd217   1.974   1_565  S
Cd217       O219   2.087       .  S
O218        C225   1.298       .  A
C220        O224   1.261       .  A
C220        C291   1.507       .  S
C221        C297   1.505       .  S
C223        C261   1.525       .  S
C225        C267   1.486       .  S
C226        O227   1.292   1_545  A
C226        C279   1.481       .  S
O228        C244   1.283       .  A
O228       Zn234   2.068       .  S
C229        O245   1.276       .  A
C229        O242   1.282   1_545  A
C229        C259   1.482       .  S
O230        C243   1.296       .  A
O230       Cd237   2.226       .  S
O231        C249   1.261       .  A
O231       Cd240   2.009       .  S
O232        C246   1.279   1_655  A
O232       Cd236   2.112   1_655  S
O233        C244   1.277   1_565  A
O233       Cd236   2.065       .  S
Zn234       O245   2.051       .  S
Zn234       O247   1.916       .  S
Zn234       O239   1.928   1_545  S
O235        C246   1.283       .  A
O235       Cd240   2.112       .  S
Cd236       O238   1.992       .  S
Cd236       O239   2.005       .  S
Cd237       O241   2.199       .  S
Cd237       O250   2.214       .  S
Cd237       O239   2.021       .  S
O238        C248   1.260       .  A
O239       Cd240   1.985       .  S
Cd240       O242   2.077       .  S
O241        C248   1.299       .  A
C243        O247   1.256   1_565  A
C246        C255   1.504   1_455  S
C248        C273   1.487       .  S
C249        O250   1.295       .  A
C249        C265   1.496       .  S
C251        C897   1.479   1_655  S
C251        N252   1.349       .  A
C251        N256   1.359       .  A
N252        C253   1.344       .  A
C253        N254   1.379       .  A
N254        C255   1.373       .  A
C255        N256   1.356       .  A
C257        C886   1.460       .  S
C257        N258   1.343       .  A
C257        N262   1.358       .  A
N258        C259   1.347       .  A
C259        N260   1.389       .  A
N260        C261   1.382       .  A
C261        N262   1.359       .  A
C263        C866   1.468       .  S
C263        N264   1.362       .  A
C263        N268   1.355       .  A
N264        C265   1.354       .  A
C265        N266   1.377       .  A
N266        C267   1.378       .  A
C267        N268   1.345       .  A
C269        C837   1.468       .  S
C269        N270   1.360   1_455  A
C269        N274   1.350       .  A
N270        C271   1.352       .  A
C271        N272   1.376       .  A
N272        C273   1.390   1_655  A
C273        N274   1.354       .  A
C275        C817   1.460   1_545  S
C275        N276   1.342       .  A
C275        N280   1.348       .  A
N276        C277   1.354       .  A
C277        N278   1.375       .  A
N278        C279   1.386       .  A
C279        N280   1.344       .  A
C281        C806   1.478       .  S
C281        N282   1.364       .  A
C281        N286   1.352       .  A
N282        C283   1.357       .  A
C283        N284   1.381       .  A
N284        C285   1.377       .  A
C285        N286   1.346       .  A
C287        C777   1.498       .  S
C287        N288   1.355       .  A
C287        N292   1.377       .  A
N288        C289   1.340       .  A
C289        N290   1.368       .  A
N290        C291   1.370       .  A
C291        N292   1.370       .  A
C293        C766   1.486       .  S
C293        N294   1.357       .  A
C293        N298   1.348       .  A
N294        C295   1.358       .  A
C295        N296   1.386       .  A
N296        C297   1.379       .  A
C297        N298   1.347       .  A
C299        C746   1.477       .  S
C299        N300   1.347       .  A
C299        N304   1.364       .  A
N300        C301   1.344       .  A
C301        N302   1.371       .  A
N302        C303   1.372       .  A
C303        N304   1.372       .  A
C305        C717   1.492       .  S
C305        N306   1.372       .  A
C305        N310   1.352       .  A
N306        C307   1.370       .  A
C307        N308   1.373       .  A
N308        C309   1.369       .  A
C309        N310   1.332       .  A
C311        C697   1.464       .  S
C311        N312   1.365       .  A
C311        N316   1.350       .  A
N312        C313   1.364       .  A
C313        N314   1.380       .  A
N314        C315   1.369       .  A
C315        N316   1.345       .  A
C317        C677   1.523       .  S
C317        N318   1.361       .  A
C317        N322   1.370       .  A
N318        C319   1.356       .  A
C319        N320   1.367       .  A
N320        C321   1.374       .  A
C321        N322   1.363       .  A
C323        C657   1.460       .  S
C323        N324   1.350       .  A
C323        N328   1.360       .  A
N324        C325   1.352       .  A
C325        N326   1.388       .  A
N326        C327   1.369       .  A
C327        N328   1.355       .  A
O329        C345   1.281       .  A
O329       Zn335   2.066       .  S
C330        O346   1.279       .  A
C330        O343   1.284       .  A
C330        C441   1.499       .  S
O331        C344   1.280       .  A
O331       Cd338   2.088       .  S
O332        C350   1.261       .  A
O332       Cd341   2.010       .  S
O333        C347   1.286       .  A
O333       Cd337   2.128       .  S
O334        C345   1.287       .  A
O334       Cd337   2.128       .  S
Zn335       O346   2.027       .  S
Zn335       O348   1.917       .  S
Zn335       O340   1.941       .  S
O336        C347   1.284       .  A
O336       Cd341   2.116       .  S
Cd337       O339   1.995       .  S
Cd337       O340   1.980       .  S
Cd338       O342   2.174       .  S
Cd338       O351   2.128       .  S
Cd338       O340   1.996       .  S
O339        C349   1.261       .  A
O340       Cd341   1.969       .  S
Cd341       O343   2.108       .  S
O342        C349   1.289       .  A
C344        O348   1.257       .  A
C344        C637   1.449       .  S
C345        C575   1.497       .  S
C347        C559   1.504       .  S
C349        C583   1.482       .  S
C350        O351   1.284       .  A
C350        C563   1.468       .  S
O352        C368   1.284       .  A
O352       Zn358   2.068       .  S
C353        O369   1.280   1_565  A
C353        O366   1.285       .  A
C353        C571   1.504       .  S
O354        C367   1.295       .  A
O354       Cd361   2.210       .  S
O355        C373   1.258   1_565  A
O355       Cd364   2.008       .  S
O356        C370   1.278   1_545  A
O356       Cd360   2.074       .  S
O357        C368   1.277       .  A
O357       Cd360   2.060       .  S
Zn358       O369   2.062       .  S
Zn358       O371   1.951       .  S
Zn358       O363   1.932       .  S
O359        C370   1.283       .  A
O359       Cd364   2.126       .  S
Cd360       O362   2.011       .  S
Cd360       O363   2.002       .  S
Cd361       O365   2.211       .  S
Cd361       O374   2.149       .  S
Cd361       O363   2.004       .  S
O362        C372   1.261       .  A
O363       Cd364   2.032   1_545  S
Cd364       O366   2.130       .  S
O365        C372   1.293       .  A
C367        O371   1.262       .  A
C367        C605   1.496       .  S
C368        C377   1.500       .  S
C370        C625   1.502       .  S
C372        C631   1.502       .  S
C373        O374   1.295       .  A
C373        C593   1.476   1_545  S
C375       C1057   1.488       .  S
C375        N376   1.357       .  A
C375        N380   1.354       .  A
N376        C377   1.365       .  A
C377        N378   1.380       .  A
N378        C379   1.380       .  A
C379        C401   1.492       .  S
C379        N380   1.338       .  A
O381        C397   1.282       .  A
O381       Zn387   2.030       .  S
C382        O398   1.277       .  A
C382        O395   1.286       .  A
C382        C613   1.503       .  S
O383        C396   1.288       .  A
O383       Cd390   2.168       .  S
O384        C402   1.258       .  A
O384       Cd393   1.986       .  S
O385        C399   1.281       .  A
O385       Cd389   2.122       .  S
O386        C397   1.285       .  A
O386       Cd389   2.116       .  S
Zn387       O398   2.056       .  S
Zn387       O400   1.963       .  S
Zn387       O392   1.949       .  S
O388        C399   1.284       .  A
O388       Cd393   2.111       .  S
Cd389       O391   2.002       .  S
Cd389       O392   2.018       .  S
Cd390       O394   2.199       .  S
Cd390       O403   2.207       .  S
Cd390       O392   1.991       .  S
O391        C401   1.256       .  A
O392       Cd393   1.974       .  S
Cd393       O395   2.106       .  S
O394        C401   1.298       .  A
C396        O400   1.261       .  A
C396        C406   1.491       .  S
C397        C629   1.494       .  S
C399        C635   1.511       .  S
C402        O403   1.297       .  A
C402        C443   1.486       .  S
C404        C666   1.490       .  S
C404        N405   1.360       .  A
C404        N409   1.361       .  A
N405        C406   1.355       .  A
C406        N407   1.380       .  A
N407        C408   1.372       .  A
C408        C417   1.504       .  S
C408        N409   1.358       .  A
C410        C786   1.489   1_554  S
C410        N411   1.359       .  A
C410        N415   1.355       .  A
N411        C412   1.359       .  A
C412        C434   1.501       .  S
C412        N413   1.379       .  A
N413        C414   1.376       .  A
C414        C446   1.495       .  S
C414        N415   1.354       .  A
O416        C432   1.283       .  A
O416       Zn422   2.049       .  S
C417        O433   1.281       .  A
C417        O430   1.282       .  A
O418        C431   1.300       .  A
O418       Cd425   2.246       .  S
O419        C437   1.257       .  A
O419       Cd428   2.017       .  S
O420        C434   1.283       .  A
O420       Cd424   2.108       .  S
O421        C432   1.280       .  A
O421       Cd424   2.087       .  S
Zn422       O433   2.067       .  S
Zn422       O435   1.938       .  S
Zn422       O427   1.936       .  S
O423        C434   1.278       .  A
O423       Cd428   2.104       .  S
Cd424       O426   2.019       .  S
Cd424       O427   2.013       .  S
Cd425       O429   2.210       .  S
Cd425       O438   2.177       .  S
Cd425       O427   2.006       .  S
O426        C436   1.261       .  A
O427       Cd428   2.009       .  S
Cd428       O430   2.083       .  S
O429        C436   1.295       .  A
C431        O435   1.258       .  A
C431        C611   1.513       .  S
C432        C617   1.498       .  S
C436        C599   1.499       .  S
C437        O438   1.296       .  A
C437        C589   1.491       .  S
C439        C857   1.456       .  S
C439        N440   1.356       .  A
C439        N444   1.353       .  A
N440        C441   1.348       .  A
C441        N442   1.378       .  A
N442        C443   1.383       .  A
C443        N444   1.351       .  A
O445        C461   1.282       .  A
O445       Zn451   1.992       .  S
C446        O462   1.285       .  A
C446        O459   1.279       .  A
O447        C460   1.279       .  A
O447       Cd454   2.240       .  S
O448        C466   1.261       .  A
O448       Cd457   1.959       .  S
O449        C463   1.277       .  A
O449       Cd453   2.115       .  S
O450        C461   1.283       .  A
O450       Cd453   2.133       .  S
Zn451       O462   2.123       .  S
Zn451       O464   1.974       .  S
Zn451       O456   1.882       .  S
O452        C463   1.278       .  A
O452       Cd457   2.077       .  S
Cd453       O455   2.023       .  S
Cd453       O456   1.946       .  S
Cd454       O458   2.284       .  S
Cd454       O467   2.224       .  S
Cd454       O456   2.039       .  S
O455        C465   1.255       .  A
O456       Cd457   1.929       .  S
Cd457       O459   2.076       .  S
O458        C465   1.286       .  A
C460        O464   1.256       .  A
C460        C587   1.515       .  S
C461        C623   1.470       .  S
C463        C647   1.489       .  S
C465        C595   1.532       .  S
C466        O467   1.301       .  A
C466        C470   1.479       .  S
C468       C1126   1.499       .  S
C468        N469   1.355       .  A
C468        N473   1.373       .  A
N469        C470   1.344       .  A
C470        N471   1.369       .  A
N471        C472   1.378       .  A
C472        C523   1.509       .  S
C472        N473   1.363       .  A
O474        C490   1.287       .  A
O474       Zn480   2.069       .  S
C475        O491   1.282       .  A
C475        O488   1.278   1_545  A
C475        C569   1.490   1_545  S
O476        C489   1.294       .  A
O476       Cd483   2.223       .  S
O477        C495   1.258       .  A
O477       Cd486   1.989       .  S
O478        C492   1.287   1_445  A
O478       Cd482   2.170   1_455  S
O479        C490   1.282   1_455  A
O479       Cd482   2.120   1_455  S
Zn480       O491   2.087       .  S
Zn480       O493   1.933       .  S
Zn480       O485   1.945       .  S
O481        C492   1.274       .  A
O481       Cd486   2.069   1_565  S
Cd482       O484   1.945       .  S
Cd482       O485   1.986       .  S
Cd483       O487   2.175       .  S
Cd483       O496   2.226       .  S
Cd483       O485   2.046       .  S
O484        C494   1.255       .  A
O485       Cd486   1.966       .  S
Cd486       O488   2.047   1_545  S
O487        C494   1.290       .  A
C489        O493   1.258       .  A
C489        C607   1.500       .  S
C490        C577   1.511   1_655  S
C492        C653   1.505   1_655  S
C494        C581   1.458   1_655  S
C495        O496   1.298       .  A
C495        C499   1.493       .  S
C497       C1037   1.465       .  S
C497        N498   1.356   1_565  A
C497        N502   1.357       .  A
N498        C499   1.346       .  A
C499        N500   1.379   1_545  A
N500        C501   1.381       .  A
C501        C518   1.494       .  S
C501        N502   1.351       .  A
O503        C519   1.286       .  A
O503       Zn509   2.047   1_554  S
C504        O520   1.276   1_455  A
C504        O517   1.285       .  A
C504        C655   1.512       .  S
O505        C518   1.297       .  A
O505       Cd512   2.214       .  S
O506        C524   1.256   1_455  A
O506       Cd515   1.971   1_455  S
O507        C521   1.277   1_655  A
O507       Cd511   2.094       .  S
O508        C519   1.275       .  A
O508       Cd511   2.080       .  S
Zn509       O520   2.092       .  S
Zn509       O522   1.939       .  S
Zn509       O514   1.945       .  S
O510        C521   1.282   1_556  A
O510       Cd515   2.112   1_455  S
Cd511       O513   1.978       .  S
Cd511       O514   1.993   1_554  S
Cd512       O516   2.256       .  S
Cd512       O525   2.221       .  S
Cd512       O514   2.026       .  S
O513        C523   1.258       .  A
O514       Cd515   1.990       .  S
Cd515       O517   2.104   1_655  S
O516        C523   1.301   1_556  A
C518        O522   1.263       .  A
C519        C649   1.497       .  S
C521        C641   1.503       .  S
C524        O525   1.297       .  A
C524        C551   1.492   1_655  S
O526        C542   1.283       .  A
O526       Zn532   2.057       .  S
C527        O543   1.281       .  A
C527        O540   1.282       .  A
C527        C565   1.485       .  S
O528        C541   1.290       .  A
O528       Cd535   2.188       .  S
O529        C547   1.262       .  A
O529       Cd538   2.018       .  S
O530        C544   1.283       .  A
O530       Cd534   2.097       .  S
O531        C542   1.279       .  A
O531       Cd534   2.098       .  S
Zn532       O543   2.046       .  S
Zn532       O545   1.950       .  S
Zn532       O537   1.930       .  S
O533        C544   1.278       .  A
O533       Cd538   2.089       .  S
Cd534       O536   2.008       .  S
Cd534       O537   1.991       .  S
Cd535       O539   2.123       .  S
Cd535       O548   2.160       .  S
Cd535       O537   1.990       .  S
O536        C546   1.261       .  A
O537       Cd538   1.998       .  S
Cd538       O540   2.076       .  S
O539        C546   1.285       .  A
C541        O545   1.260       .  A
C541        C557   1.489       .  S
C542        C553   1.494       .  S
C544        C601   1.495   1_556  S
C546        C643   1.468   1_556  S
C547        O548   1.293       .  A
C547        C619   1.486   1_556  S
C549        C906   1.458       .  S
C549        N550   1.360   1_455  A
C549        N554   1.353       .  A
N550        C551   1.356   1_655  A
C551        N552   1.383       .  A
N552        C553   1.373       .  A
C553        N554   1.343       .  A
C555        C706   1.483   1_455  S
C555        N556   1.358       .  A
C555        N560   1.365       .  A
N556        C557   1.354       .  A
C557        N558   1.376       .  A
N558        C559   1.375       .  A
C559        N560   1.358       .  A
C561        C726   1.468       .  S
C561        N562   1.355       .  A
C561        N566   1.357       .  A
N562        C563   1.360       .  A
C563        N564   1.374       .  A
N564        C565   1.365       .  A
C565        N566   1.347       .  A
C567        C737   1.488       .  S
C567        N568   1.345       .  A
C567        N572   1.367       .  A
N568        C569   1.343       .  A
C569        N570   1.374       .  A
N570        C571   1.384       .  A
C571        N572   1.367       .  A
C573        C926   1.477       .  S
C573        N574   1.352   1_655  A
C573        N578   1.357       .  A
N574        C575   1.349       .  A
C575        N576   1.385       .  A
N576        C577   1.384       .  A
C577        N578   1.357   1_455  A
C579        C946   1.482       .  S
C579        N580   1.349       .  A
C579        N584   1.367       .  A
N580        C581   1.332       .  A
C581        N582   1.362       .  A
N582        C583   1.377       .  A
C583        N584   1.364       .  A
C585        C757   1.467       .  S
C585        N586   1.346       .  A
C585        N590   1.341       .  A
N586        C587   1.362       .  A
C587        N588   1.386       .  A
N588        C589   1.393       .  A
C589        N590   1.343       .  A
C591       C1026   1.447   1_565  S
C591        N592   1.327   1_565  A
C591        N596   1.349       .  A
N592        C593   1.341   1_545  A
C593        N594   1.398       .  A
N594        C595   1.387       .  A
C595        N596   1.361       .  A
C597        C986   1.458       .  S
C597        N598   1.361       .  A
C597        N602   1.350       .  A
N598        C599   1.361       .  A
C599        N600   1.384       .  A
N600        C601   1.376       .  A
C601        N602   1.344       .  A
C603        C686   1.495       .  S
C603        N604   1.366       .  A
C603        N608   1.369       .  A
N604        C605   1.355       .  A
C605        N606   1.370       .  A
N606        C607   1.373       .  A
C607        N608   1.361       .  A
C609       C1106   1.486       .  S
C609        N610   1.368       .  A
C609        N614   1.352       .  A
N610        C611   1.363       .  A
C611        N612   1.386       .  A
N612        C613   1.376       .  A
C613        N614   1.344       .  A
C615        C997   1.483       .  S
C615        N616   1.359       .  A
C615        N620   1.349       .  A
N616        C617   1.366       .  A
C617        N618   1.379       .  A
N618        C619   1.376       .  A
C619        N620   1.335       .  A
C621        C957   1.493   1_565  S
C621        N622   1.342       .  A
C621        N626   1.363   1_565  A
N622        C623   1.338       .  A
C623        N624   1.373       .  A
N624        C625   1.377       .  A
C625        N626   1.370   1_565  A
C627       C1077   1.475       .  S
C627        N628   1.356       .  A
C627        N632   1.368       .  A
N628        C629   1.351       .  A
C629        N630   1.368       .  A
N630        C631   1.378       .  A
C631        N632   1.366       .  A
C633        C877   1.503       .  S
C633        N634   1.380       .  A
C633        N638   1.330       .  A
N634        C635   1.373       .  A
C635        N636   1.367       .  A
N636        C637   1.366       .  A
C637        N638   1.329       .  A
C639        C846   1.488   1_455  S
C639        N640   1.368       .  A
C639        N644   1.347       .  A
N640        C641   1.369       .  A
C641        N642   1.369       .  A
N642        C643   1.371       .  A
C643        N644   1.342       .  A
C645        C797   1.493   1_564  S
C645        N646   1.354       .  A
C645        N650   1.349       .  A
N646        C647   1.352       .  A
C647        N648   1.379       .  A
N648        C649   1.376       .  A
C649        N650   1.350       .  A
C651        C826   1.489       .  S
C651        N652   1.360       .  A
C651        N656   1.349       .  A
N652        C653   1.360       .  A
C653        N654   1.390       .  A
N654        C655   1.382       .  A
C655        N656   1.346       .  A
C657        C658   1.401       .  A
C657        C662   1.404       .  A
C658        C659   1.398       .  A
C658       Br670   1.929       .  S
C659        C660   1.402       .  A
C659       Br674   1.893       .  S
C660        C663   1.481       .  S
C660        C661   1.410       .  A
C661        C662   1.403       .  A
C661       Br669   1.923       .  S
C662       Br673   1.923       .  S
C663        C664   1.407       .  A
C663        C668   1.417       .  A
C664        C665   1.407       .  A
C664       Br675   1.912       .  S
C665        C666   1.401       .  A
C665       Br671   1.911       .  S
C666        C667   1.402       .  A
C667        C668   1.403       .  A
C667       Br676   1.924       .  S
C668       Br672   1.919       .  S
C677        C678   1.428       .  A
C677        C682   1.431       .  A
C678        C679   1.415       .  A
C678       Br690   1.933       .  S
C679        C680   1.406       .  A
C679       Br694   1.931       .  S
C680        C683   1.495       .  S
C680        C681   1.403       .  A
C681        C682   1.411       .  A
C681       Br689   1.934       .  S
C682       Br693   1.932       .  S
C683        C684   1.408       .  A
C683        C688   1.410       .  A
C684        C685   1.407       .  A
C684       Br695   1.928       .  S
C685        C686   1.418       .  A
C685       Br691   1.931       .  S
C686        C687   1.418       .  A
C687        C688   1.413       .  A
C687       Br696   1.932       .  S
C688       Br692   1.930       .  S
C697        C698   1.411       .  A
C697        C702   1.407       .  A
C698        C699   1.408       .  A
C698       Br710   1.929       .  S
C699        C700   1.408       .  A
C699       Br714   1.928       .  S
C700        C703   1.481       .  S
C700        C701   1.410       .  A
C701        C702   1.403       .  A
C701       Br709   1.933       .  S
C702       Br713   1.927       .  S
C703        C704   1.404       .  A
C703        C708   1.410       .  A
C704        C705   1.407       .  A
C704       Br715   1.930       .  S
C705        C706   1.421       .  A
C705       Br711   1.933   1_655  S
C706        C707   1.409       .  A
C707        C708   1.406       .  A
C707       Br716   1.929       .  S
C708       Br712   1.931       .  S
C717        C718   1.418       .  A
C717        C722   1.400       .  A
C718        C719   1.407       .  A
C718       Br730   1.920       .  S
C719        C720   1.413       .  A
C719       Br734   1.934       .  S
C720        C723   1.483       .  S
C720        C721   1.420       .  A
C721        C722   1.410       .  A
C721       Br729   1.921       .  S
C722       Br733   1.920       .  S
C723        C724   1.425       .  A
C723        C728   1.415       .  A
C724        C725   1.407       .  A
C724       Br735   1.924       .  S
C725        C726   1.395       .  A
C725       Br731   1.922       .  S
C726        C727   1.401       .  A
C727        C728   1.404       .  A
C727       Br736   1.914       .  S
C728       Br732   1.927       .  S
C737        C738   1.421       .  A
C737        C742   1.396       .  A
C738        C739   1.407       .  A
C738       Br750   1.927       .  S
C739        C740   1.400       .  A
C739       Br754   1.918       .  S
C740        C743   1.491       .  S
C740        C741   1.414       .  A
C741        C742   1.403       .  A
C741       Br749   1.902       .  S
C742       Br753   1.926       .  S
C743        C744   1.417       .  A
C743        C748   1.400       .  A
C744        C745   1.409       .  A
C744       Br755   1.927       .  S
C745        C746   1.404       .  A
C745       Br751   1.925       .  S
C746        C747   1.414       .  A
C747        C748   1.407       .  A
C747       Br756   1.916       .  S
C748       Br752   1.925       .  S
C757        C758   1.401       .  A
C757        C762   1.411       .  A
C758        C759   1.401       .  A
C758       Br770   1.929       .  S
C759        C760   1.423       .  A
C759       Br774   1.930       .  S
C760        C763   1.490       .  S
C760        C761   1.401       .  A
C761        C762   1.405       .  A
C761       Br769   1.918       .  S
C762       Br773   1.927       .  S
C763        C764   1.413       .  A
C763        C768   1.393       .  A
C764        C765   1.402       .  A
C764       Br775   1.920       .  S
C765        C766   1.411       .  A
C765       Br771   1.931       .  S
C766        C767   1.427       .  A
C767        C768   1.404       .  A
C767       Br776   1.924       .  S
C768       Br772   1.921       .  S
C777        C778   1.429       .  A
C777        C782   1.416       .  A
C778        C779   1.402       .  A
C778       Br790   1.940       .  S
C779        C780   1.402       .  A
C779       Br794   1.934       .  S
C780        C783   1.485       .  S
C780        C781   1.409       .  A
C781        C782   1.411       .  A
C781       Br789   1.931       .  S
C782       Br793   1.923       .  S
C783        C784   1.408       .  A
C783        C788   1.407       .  A
C784        C785   1.407       .  A
C784       Br795   1.934       .  S
C785        C786   1.418       .  A
C785       Br791   1.934       .  S
C786        C787   1.420       .  A
C787        C788   1.409       .  A
C787       Br796   1.936       .  S
C788       Br792   1.932       .  S
C797        C798   1.429       .  A
C797        C802   1.428       .  A
C798        C799   1.399       .  A
C798       Br810   1.939       .  S
C799        C800   1.400       .  A
C799       Br814   1.938       .  S
C800        C803   1.469       .  S
C800        C801   1.398       .  A
C801        C802   1.405       .  A
C801       Br809   1.930       .  S
C802       Br813   1.937   1_545  S
C803        C804   1.408       .  A
C803        C808   1.400       .  A
C804        C805   1.400       .  A
C804       Br815   1.931   1_556  S
C805        C806   1.413       .  A
C805       Br811   1.934   1_556  S
C806        C807   1.425       .  A
C807        C808   1.402       .  A
C807       Br816   1.937       .  S
C808       Br812   1.934       .  S
C817        C818   1.405       .  A
C817        C822   1.406       .  A
C818        C819   1.399       .  A
C818       Br830   1.920       .  S
C819        C820   1.402       .  A
C819       Br834   1.921       .  S
C820        C823   1.468       .  S
C820        C821   1.413       .  A
C821        C822   1.397       .  A
C821       Br829   1.929       .  S
C822       Br833   1.933   1_565  S
C823        C824   1.413       .  A
C823        C828   1.394       .  A
C824        C825   1.402       .  A
C824       Br835   1.923       .  S
C825        C826   1.405       .  A
C825       Br831   1.927       .  S
C826        C827   1.420       .  A
C827        C828   1.400       .  A
C827       Br836   1.915       .  S
C828       Br832   1.927       .  S
C837        C838   1.401       .  A
C837        C842   1.405       .  A
C838        C839   1.407       .  A
C838       Br850   1.919       .  S
C839        C840   1.414       .  A
C839       Br854   1.920       .  S
C840        C843   1.502       .  S
C840        C841   1.415       .  A
C841        C842   1.409       .  A
C841       Br849   1.913       .  S
C842       Br853   1.931       .  S
C843        C844   1.409   1_455  A
C843        C848   1.404       .  A
C844        C845   1.402       .  A
C844       Br855   1.872       .  S
C845        C846   1.396       .  A
C845       Br851   1.926       .  S
C846        C847   1.416   1_655  A
C847        C848   1.410       .  A
C847       Br856   1.924       .  S
C848       Br852   1.908       .  S
C857        C858   1.416       .  A
C857        C862   1.405       .  A
C858        C859   1.401       .  A
C858       Br870   1.932       .  S
C859        C860   1.402       .  A
C859       Br874   1.932       .  S
C860        C863   1.459       .  S
C860        C861   1.409       .  A
C861        C862   1.394       .  A
C861       Br869   1.935       .  S
C862       Br873   1.933       .  S
C863        C864   1.398       .  A
C863        C868   1.405       .  A
C864        C865   1.396       .  A
C864       Br875   1.935       .  S
C865        C866   1.423       .  A
C865       Br871   1.935       .  S
C866        C867   1.413       .  A
C867        C868   1.400       .  A
C867       Br876   1.932       .  S
C868       Br872   1.933       .  S
C877        C878   1.443       .  A
C877        C882   1.399       .  A
C878        C879   1.408       .  A
C878       Br890   1.942       .  S
C879        C880   1.389       .  A
C879       Br894   1.925       .  S
C880        C883   1.492       .  S
C880        C881   1.414       .  A
C881        C882   1.412       .  A
C881       Br889   1.920       .  S
C882       Br893   1.912       .  S
C883        C884   1.398       .  A
C883        C888   1.409       .  A
C884        C885   1.408       .  A
C884       Br895   1.915       .  S
C885        C886   1.416       .  A
C885       Br891   1.926       .  S
C886        C887   1.402       .  A
C887        C888   1.399       .  A
C887       Br896   1.924       .  S
C888       Br892   1.916       .  S
C897        C898   1.422   1_455  A
C897        C902   1.418       .  A
C898        C899   1.395       .  A
C898       Br910   1.939       .  S
C899        C900   1.403   1_655  A
C899       Br914   1.938       .  S
C900        C903   1.462       .  S
C900        C901   1.404       .  A
C901        C902   1.401       .  A
C901       Br909   1.932       .  S
C902       Br913   1.934       .  S
C903        C904   1.408       .  A
C903        C908   1.403       .  A
C904        C905   1.401       .  A
C904       Br915   1.935   1_455  S
C905        C906   1.412       .  A
C905       Br911   1.933   1_455  S
C906        C907   1.410       .  A
C907        C908   1.394       .  A
C907       Br916   1.932       .  S
C908       Br912   1.933       .  S
C917        C918   1.410       .  A
C917        C922   1.419       .  A
C918        C919   1.399       .  A
C918       Br930   1.932       .  S
C919        C920   1.407       .  A
C919       Br934   1.932       .  S
C920        C923   1.472       .  S
C920        C921   1.404       .  A
C921        C922   1.407       .  A
C921       Br929   1.931       .  S
C922       Br933   1.932       .  S
C923        C924   1.403       .  A
C923        C928   1.409       .  A
C924        C925   1.404       .  A
C924       Br935   1.929       .  S
C925        C926   1.416       .  A
C925       Br931   1.931       .  S
C926        C927   1.416       .  A
C927        C928   1.401       .  A
C927       Br936   1.937   1_655  S
C928       Br932   1.938       .  S
C937        C938   1.404       .  A
C937        C942   1.401       .  A
C938        C939   1.413       .  A
C938       Br950   1.916       .  S
C939        C940   1.417       .  A
C939       Br954   1.919       .  S
C940        C943   1.490       .  S
C940        C941   1.412       .  A
C941        C942   1.409       .  A
C941       Br949   1.902       .  S
C942       Br953   1.917   1_556  S
C943        C944   1.423       .  A
C943        C948   1.424   1_655  A
C944        C945   1.419   1_655  A
C944       Br955   1.929       .  S
C945        C946   1.411       .  A
C945       Br951   1.921       .  S
C946        C947   1.386       .  A
C947        C948   1.404       .  A
C947       Br956   1.907       .  S
C948       Br952   1.914       .  S
C957        C958   1.429       .  A
C957        C962   1.416       .  A
C958        C959   1.400       .  A
C958       Br970   1.939       .  S
C959        C960   1.398       .  A
C959       Br974   1.933       .  S
C960        C963   1.473       .  S
C960        C961   1.410       .  A
C961        C962   1.407       .  A
C961       Br969   1.933       .  S
C962       Br973   1.931       .  S
C963        C964   1.403       .  A
C963        C968   1.404   1_545  A
C964        C965   1.402       .  A
C964       Br975   1.927       .  S
C965        C966   1.418       .  A
C965       Br971   1.932       .  S
C966        C967   1.413   1_545  A
C967        C968   1.401       .  A
C967       Br976   1.927       .  S
C968       Br972   1.919       .  S
C977        C978   1.413       .  A
C977        C982   1.429   1_556  A
C978        C979   1.399       .  A
C978       Br990   1.921       .  S
C979        C980   1.407   1_556  A
C979       Br994   1.936       .  S
C980        C983   1.477       .  S
C980        C981   1.401       .  A
C981        C982   1.408       .  A
C981       Br989   1.932       .  S
C982       Br993   1.934   1_565  S
C983        C984   1.409       .  A
C983        C988   1.411       .  A
C984        C985   1.403       .  A
C984       Br995   1.929       .  S
C985        C986   1.407       .  A
C985       Br991   1.929       .  S
C986        C987   1.405       .  A
C987        C988   1.399       .  A
C987       Br996   1.925       .  S
C988       Br992   1.934       .  S
C997        C998   1.391       .  A
C997       C1002   1.404       .  A
C998        C999   1.408       .  A
C998      Br1010   1.923       .  S
C999       C1000   1.432       .  A
C999      Br1014   1.922       .  S
C1000      C1003   1.493   1_554  S
C1000      C1001   1.421       .  A
C1001      C1002   1.414       .  A
C1001     Br1009   1.934       .  S
C1002     Br1013   1.905       .  S
C1003      C1004   1.425       .  A
C1003      C1008   1.424       .  A
C1004      C1005   1.408       .  A
C1004     Br1015   1.919       .  S
C1005      C1006   1.391       .  A
C1005     Br1011   1.894       .  S
C1006      C1007   1.400       .  A
C1007      C1008   1.410       .  A
C1007     Br1016   1.906       .  S
C1008     Br1012   1.922   1_556  S
C1017      C1018   1.400   1_545  A
C1017      C1022   1.411       .  A
C1018      C1019   1.399       .  A
C1018     Br1030   1.929       .  S
C1019      C1020   1.418   1_565  A
C1019     Br1034   1.923       .  S
C1020      C1023   1.463       .  S
C1020      C1021   1.395       .  A
C1021      C1022   1.398       .  A
C1021     Br1029   1.927       .  S
C1022     Br1033   1.898       .  S
C1023      C1024   1.400       .  A
C1023      C1028   1.408       .  A
C1024      C1025   1.394       .  A
C1024     Br1035   1.913       .  S
C1025      C1026   1.401       .  A
C1025     Br1031   1.919       .  S
C1026      C1027   1.405       .  A
C1027      C1028   1.395       .  A
C1027     Br1036   1.931       .  S
C1028     Br1032   1.929       .  S
C1037      C1038   1.416       .  A
C1037      C1042   1.411       .  A
C1038      C1039   1.393       .  A
C1038     Br1050   1.933       .  S
C1039      C1040   1.402       .  A
C1039     Br1054   1.935       .  S
C1040      C1043   1.458       .  S
C1040      C1041   1.404       .  A
C1041      C1042   1.401       .  A
C1041     Br1049   1.929       .  S
C1042     Br1053   1.925       .  S
C1043      C1044   1.405   1_565  A
C1043      C1048   1.401       .  A
C1044      C1045   1.395       .  A
C1044     Br1055   1.935       .  S
C1045      C1046   1.416       .  A
C1045     Br1051   1.940       .  S
C1046      C1047   1.412   1_545  A
C1047      C1048   1.399       .  A
C1047     Br1056   1.923       .  S
C1048     Br1052   1.930       .  S
C1057      C1058   1.405       .  A
C1057      C1062   1.398       .  A
C1058      C1059   1.416       .  A
C1058     Br1070   1.921       .  S
C1059      C1060   1.425       .  A
C1059     Br1074   1.923       .  S
C1060      C1063   1.498       .  S
C1060      C1061   1.420       .  A
C1061      C1062   1.411       .  A
C1061     Br1069   1.910       .  S
C1062     Br1073   1.919       .  S
C1063      C1064   1.418       .  A
C1063      C1068   1.428       .  A
C1064      C1065   1.414       .  A
C1064     Br1075   1.916       .  S
C1065      C1066   1.406       .  A
C1065     Br1071   1.917       .  S
C1066      C1067   1.394       .  A
C1067      C1068   1.407       .  A
C1067     Br1076   1.925       .  S
C1068     Br1072   1.926       .  S
C1077      C1078   1.408       .  A
C1077      C1082   1.406       .  A
C1078      C1079   1.410       .  A
C1078     Br1090   1.926       .  S
C1079      C1080   1.413       .  A
C1079     Br1094   1.930       .  S
C1080      C1083   1.492       .  S
C1080      C1081   1.412       .  A
C1081      C1082   1.407       .  A
C1081     Br1089   1.931       .  S
C1082     Br1093   1.923       .  S
C1083      C1084   1.413       .  A
C1083      C1088   1.411       .  A
C1084      C1085   1.407       .  A
C1084     Br1095   1.930       .  S
C1085      C1086   1.406       .  A
C1085     Br1091   1.930       .  S
C1086      C1087   1.412       .  A
C1087      C1088   1.411       .  A
C1087     Br1096   1.930   1_554  S
C1088     Br1092   1.930       .  S
C1097      C1098   1.417   1_655  A
C1097      C1102   1.416   1_655  A
C1098      C1099   1.407       .  A
C1098     Br1110   1.930   1_455  S
C1099      C1100   1.408       .  A
C1099     Br1114   1.930       .  S
C1100      C1103   1.486       .  S
C1100      C1101   1.409       .  A
C1101      C1102   1.408       .  A
C1101     Br1109   1.930       .  S
C1102     Br1113   1.926   1_455  S
C1103      C1104   1.410       .  A
C1103      C1108   1.403       .  A
C1104      C1105   1.405       .  A
C1104     Br1115   1.913       .  S
C1105      C1106   1.411       .  A
C1105     Br1111   1.936       .  S
C1106      C1107   1.423       .  A
C1107      C1108   1.406       .  A
C1107     Br1116   1.934       .  S
C1108     Br1112   1.932       .  S
C1117      C1118   1.410       .  A
C1117      C1122   1.384       .  A
C1118      C1119   1.411       .  A
C1118     Br1130   1.920   1_554  S
C1119      C1120   1.412       .  A
C1119     Br1134   1.922   1_554  S
C1120      C1123   1.472       .  S
C1120      C1121   1.420       .  A
C1121      C1122   1.400       .  A
C1121     Br1129   1.911       .  S
C1122     Br1133   1.907       .  S
C1123      C1124   1.410       .  A
C1123      C1128   1.394       .  A
C1124      C1125   1.409       .  A
C1124     Br1135   1.926   1_554  S
C1125      C1126   1.418       .  A
C1125     Br1131   1.933   1_554  S
C1126      C1127   1.436       .  A
C1127      C1128   1.397       .  A
C1127     Br1136   1.936       .  S
C1128     Br1132   1.937       .  S
