geometry optimzed in LAMMPS
_audit_creation_date              2020-11-30 
_audit_creation_method            'lammps2cif' 
_symmetry_space_group_name_H-M    'P1' 
_symmetry_Int_Tables_number       1 
_symmetry_cell_setting            triclinic 
loop_ 
_symmetry_equiv_pos_as_xyz 
  x,y,z 
_cell_length_a                    40.47572175 
_cell_length_b                    31.807394689187582 
_cell_length_c                    27.296074120316263 
_cell_angle_alpha                 91.32035331528657 
_cell_angle_beta                  88.04552653842568 
_cell_angle_gamma                 92.86286724713538 
loop_ 
_atom_site_label 
_atom_site_type_symbol 
_atom_site_fract_x 
_atom_site_fract_y 
_atom_site_fract_z 
_atom_site_charge 
C1          C  0.14302444  0.29946344  0.20412079     0.83000
N2          N  0.16878654  0.27371017  0.19769820    -0.75300
C3          C  0.18412190  0.25915282  0.23699297     0.85400
N4          N  0.17343134  0.27029713  0.28294966    -0.75300
C5          C  0.14778048  0.29579503  0.29022187     0.85500
N6          N  0.13256108  0.31044542  0.25058913    -0.77000
O7          O  0.96507554  0.66534625  0.05438872    -0.55000
C8          C  0.96510912  0.65260142  0.44979864     0.77600
O9          O  0.05200187  0.67022218  0.98033346    -0.56200
C10         C  0.96596389  0.64629494  0.09448051     0.77600
C11         C  0.01963089  0.54346537  0.51791513     0.79900
Cd12       Cd  0.00565788  0.62137719  0.00919448     1.37500
O13         O  0.95848256  0.66604216  0.49283651    -0.55000
O14         O  0.98913565  0.54495550  0.00742071    -0.53900
C15         C  0.06458970  0.67593263  0.02188654     0.79900
O16         O  0.04141458  0.56020640  0.00496602    -0.56200
O17         O  0.98916839  0.62881501  0.44509554    -0.54700
O18         O  0.98388911  0.61477290  0.09452126    -0.54700
O19         O  0.04544893  0.67900136  0.57160381    -0.53800
O20         O  0.11164809  0.31985264  0.44173473    -0.55000
C21         C  0.11404737  0.31558410  0.07214584     0.77600
O22         O  0.53015854  0.40805126  0.00592946    -0.56200
C23         C  0.09885753  0.33601039  0.40513347     0.77600
C24         C  0.50894846  0.28702641  0.01805059     0.79900
Cd25       Cd  0.07136053  0.34946286  0.50427153     1.37500
O26         O  0.11767629  0.29863451  0.02996114    -0.55000
O27         O  0.52993796  0.29519218  0.46705113    -0.53900
C28         C  0.06240634  0.43870741  0.50728175     0.79900
O29         O  0.51051992  0.32093803  0.04288645    -0.56200
O30         O  0.09316505  0.34381008  0.07601791    -0.54700
O31         O  0.07440286  0.35839775  0.41456932    -0.54700
O32         O  0.09059046  0.42441459  0.51310816    -0.53800
C33         C  0.93903958  0.66263694  0.22998847     0.83000
N34         N  0.39509301  0.68262217  0.22098566    -0.75300
C35         C  0.38591281  0.69743221  0.26644925     0.85400
N36         N  0.40018141  0.68253673  0.30665180    -0.75300
C37         C  0.93920051  0.66480002  0.31645932     0.85500
N38         N  0.95125404  0.65024960  0.27267408    -0.77000
C39         C  0.17973071  0.78498883  0.05314999     0.83000
N40         N  0.19583376  0.80242567  0.01345515    -0.75300
C41         C  0.18930350  0.79023762  0.46722295     0.85400
N42         N  0.15992423  0.76796969  0.46225751    -0.75300
C43         C  0.14175062  0.74968507  0.00071553     0.85500
N44         N  0.15279189  0.75846721  0.04656877    -0.77000
O45         O  0.21266963  0.80861134  0.29220368    -0.55000
C46         C  0.23159289  0.82700693  0.16086168     0.77600
O47         O  0.30829410  0.89336594  0.25485189    -0.56200
C48         C  0.22245956  0.81152576  0.33565775     0.77600
C49         C  0.31838903  0.77508590  0.24173865     0.79900
Cd50       Cd  0.26578340  0.83447507  0.25224536     1.37500
O51         O  0.22584715  0.80078430  0.19472146    -0.55000
O52         O  0.31046364  0.79129089  0.28293374    -0.53900
C53         C  0.28823802  0.92235299  0.26115545     0.79900
O54         O  0.30240932  0.78635753  0.20579900    -0.56200
O55         O  0.25234901  0.85706547  0.16965878    -0.54700
O56         O  0.25196376  0.82553797  0.34081054    -0.54700
O57         O  0.25788519  0.91086615  0.26477544    -0.53800
O58         O  0.35606775  0.15109488  0.19347107    -0.55000
C59         C  0.35479638  0.15852218  0.32935328     0.77600
O60         O  0.26912775  0.17374341  0.29827239    -0.56200
C61         C  0.34135744  0.13774439  0.15554554     0.77600
C62         C  0.29003247  0.04321734  0.26181229     0.79900
Cd63       Cd  0.31007589  0.13157810  0.25242471     1.37500
O64         O  0.35767777  0.17355174  0.28681180    -0.55000
O65         O  0.32026433  0.05535787  0.25860913    -0.53900
C66         C  0.25594136  0.18835844  0.26149419     0.79900
O67         O  0.26936441  0.07164016  0.26146011    -0.56200
O68         O  0.33156316  0.13093388  0.33629695    -0.54700
O69         O  0.31253330  0.12134321  0.16234123    -0.54700
O70         O  0.26792200  0.17750008  0.22005023    -0.53800
C71         C  0.40083523  0.16684492  0.04723349     0.83000
N72         N  0.38503892  0.15178672  0.00678280    -0.75300
C73         C  0.39404119  0.17444627  0.45572057     0.85400
N74         N  0.42198854  0.19940734  0.44789752    -0.75300
C75         C  0.44238196  0.19934072  0.99624161     0.85500
N76         N  0.42937276  0.19075060  0.04169142    -0.77000
C77         C  0.37278183  0.15980619  0.41499030    -0.13700
C78         C  0.37741528  0.17281527  0.36858819    -0.28800
H79         H  0.35192117  0.13823345  0.42400517     0.15400
H80         H  0.39775275  0.19506562  0.35928542     0.15900
C81         C  0.38663792  0.15973534  0.09720126    -0.13700
C82         C  0.35640115  0.14138491  0.10564151    -0.28800
H83         H  0.40099909  0.17162021  0.12792602     0.15400
H84         H  0.34172681  0.12986439  0.07510287     0.15900
C85         C  0.29995486  0.96710151  0.26288821    -0.13700
C86         C  0.27884233  0.99843233  0.26489893    -0.28800
H87         H  0.32646139  0.97437677  0.26018754     0.15400
H88         H  0.25233618  0.99104685  0.26698011     0.15900
C89         C  0.20049144  0.79875877  0.37772258    -0.13700
C90         C  0.21031815  0.80308958  0.42419895    -0.28800
H91         H  0.17588288  0.78551944  0.37023063     0.15400
H92         H  0.23478176  0.81706661  0.43126420     0.15900
C93         C  0.19232126  0.79263049  0.10301797    -0.13700
C94         C  0.21607236  0.82246912  0.11271182    -0.28800
H95         H  0.18237355  0.77249834  0.13218638     0.15400
H96         H  0.22533455  0.84348776  0.08397946     0.15900
C97         C  0.36085681  0.72977434  0.27286506    -0.13700
C98         C  0.34453128  0.74435312  0.23511790    -0.28800
H99         H  0.35515775  0.74115778  0.30988428     0.15400
H100        H  0.34988025  0.73275118  0.19809055     0.15900
C101        C  0.47248985  0.22712548  0.99019800    -0.13700
C102        C  0.48030022  0.25698896  0.02399937    -0.28800
H103        H  0.47857162  0.24750224  0.44042113     0.15400
H104        H  0.46421876  0.26097300  0.05628761     0.15900
C105        C  0.09450243  0.70335470  0.02984723    -0.13700
C106        C  0.11210322  0.72158538  0.99278250    -0.28800
H107        H  0.10221352  0.70848841  0.06736199     0.15400
H108        H  0.10341869  0.71958507  0.46078987     0.15900
C109        C  0.95456203  0.65122969  0.36153274    -0.13700
C110        C  0.94628062  0.66482982  0.40715317    -0.28800
H111        H  0.97456166  0.62990570  0.35646070     0.15000
H112        H  0.92644488  0.68624784  0.41305942     0.15900
C113        C  0.95377005  0.64624709  0.18345308    -0.13700
C114        C  0.94770694  0.66105179  0.13906369    -0.28800
H115        H  0.97172528  0.62227641  0.18628193     0.15400
H116        H  0.93074322  0.68608412  0.13573446     0.15900
C117        C  0.02638376  0.49865929  0.51053384    -0.13700
C118        C  0.05694806  0.48414615  0.51174514    -0.28800
H119        H  0.00524694  0.47678191  0.50481604     0.15400
H120        H  0.07647451  0.49457618  0.99749839     0.15900
C121        C  0.13665891  0.30554332  0.34156393    -0.13700
C122        C  0.11084533  0.32913733  0.35360349    -0.28800
H123        H  0.14991747  0.29171691  0.37065505     0.15400
H124        H  0.09744365  0.34313034  0.32480819     0.15900
C125        C  0.13287710  0.30229141  0.11447882    -0.13700
C126        C  0.12583135  0.31496341  0.16115146    -0.28800
H127        H  0.15199637  0.28006944  0.10716468     0.15400
H128        H  0.10613805  0.33641147  0.16831691     0.15900
C129        C  0.21211408  0.23116398  0.22960216    -0.13700
C130        C  0.22808216  0.21640880  0.26760863    -0.28800
H131        H  0.21970728  0.22252492  0.19227858     0.15400
H132        H  0.22038492  0.22484131  0.30493874     0.15900
C133        C  0.16219156  0.30040268  0.69521831     0.83000
N134        N  0.19078081  0.27984172  0.69340554    -0.75300
C135        C  0.20408634  0.26671309  0.73488617     0.85400
N136        N  0.18877064  0.27463999  0.77885866    -0.75300
C137        C  0.16025813  0.29544740  0.78173754     0.85500
N138        N  0.14670404  0.30817220  0.73964532    -0.77000
O139        O  0.96433940  0.65917424  0.59186561    -0.55000
C140        C  0.97429530  0.63695075  0.91766014     0.77600
O141        O  0.05224678  0.67298352  0.49359449    -0.56200
C142        C  0.97145853  0.63635458  0.62709483     0.77600
C143        C  0.01821595  0.53210611  0.00481959     0.79900
Cd144      Cd  0.00472652  0.63074777  0.53153281     1.37500
O145        O  0.95903975  0.64132955  0.95860990    -0.55000
O146        O  0.99037132  0.55558263  0.51733683    -0.53900
C147        C  0.06205446  0.68930902  0.53347847     0.79900
O148        O  0.04226796  0.57158914  0.52529706    -0.56200
O149        O  0.00364788  0.62534963  0.91902817    -0.54700
O150        O  0.99305665  0.60964858  0.61784476    -0.54700
O151        O  0.05006186  0.65682651  0.05706522    -0.53800
O152        O  0.11793520  0.31831103  0.92855216    -0.55000
C153        C  0.10361649  0.33379390  0.59578845     0.77600
O154        O  0.53863642  0.40503748  0.50553349    -0.56200
C155        C  0.10173664  0.32544167  0.89088285     0.77600
C156        C  0.51678819  0.28726025  0.50861543     0.79900
Cd157      Cd  0.07400250  0.33794062  0.99016649     1.37500
O158        O  0.11850635  0.32734750  0.55478429    -0.55000
O159        O  0.53316637  0.28052818  0.98886522    -0.53900
C160        C  0.06135721  0.42698851  0.99482439     0.79900
O161        O  0.53029110  0.30539902  0.54484751    -0.56200
O162        O  0.07485629  0.34696452  0.59397242    -0.54700
O163        O  0.07296032  0.33834030  0.89887611    -0.54700
O164        O  0.09046607  0.41420350  0.99204965    -0.53800
C165        C  0.91682591  0.67676625  0.73469290     0.83000
N166        N  0.40355962  0.68704241  0.71313242    -0.75300
C167        C  0.38639123  0.70259545  0.75248538     0.85400
N168        N  0.39681961  0.69610179  0.79842588    -0.75300
C169        C  0.91528992  0.67358107  0.82116475     0.85500
N170        N  0.92965060  0.66329768  0.77678552    -0.77000
C171        C  0.18167525  0.78895400  0.55329092     0.83000
N172        N  0.20012132  0.80026677  0.51277358    -0.75300
C173        C  0.18521358  0.79353255  0.96753963     0.85400
N174        N  0.15816376  0.76711367  0.96139437    -0.75300
C175        C  0.14136620  0.75633318  0.50267012     0.85500
N176        N  0.15234649  0.76715878  0.54799791    -0.77000
O177        O  0.21599671  0.79688423  0.79458110    -0.55000
C178        C  0.23760681  0.81960187  0.66054905     0.77600
O179        O  0.30723613  0.89293938  0.75694839    -0.56200
C180        C  0.21893704  0.81386343  0.83664537     0.77600
C181        C  0.31530129  0.77700905  0.77219624     0.79900
Cd182      Cd  0.26437231  0.83527054  0.75615784     1.37500
O183        O  0.21881404  0.82087410  0.69860380    -0.55000
O184        O  0.30140606  0.77809953  0.73148468    -0.53900
C185        C  0.28810011  0.92283131  0.75404150     0.79900
O186        O  0.30535013  0.80206114  0.80536437    -0.56200
O187        O  0.26828545  0.82572227  0.66681250    -0.54700
O188        O  0.24172790  0.84227260  0.84098062    -0.54700
O189        O  0.25750940  0.91271225  0.75220349    -0.53800
O190        O  0.36641117  0.15303937  0.69016325    -0.55000
C191        C  0.36571278  0.14762662  0.83041471     0.77600
O192        O  0.28839827  0.18787647  0.72323997    -0.56200
C193        C  0.35209851  0.13715057  0.65302896     0.77600
C194        C  0.29592075  0.04367476  0.75074671     0.79900
Cd195      Cd  0.32180267  0.13011274  0.75015394     1.37500
O196        O  0.37131413  0.16379364  0.78886212    -0.55000
O197        O  0.32663749  0.05290053  0.75347193    -0.53900
C198        C  0.27192783  0.19199968  0.76304264     0.79900
O199        O  0.27727631  0.07420562  0.74820693    -0.56200
O200        O  0.34073546  0.12225630  0.83429849    -0.54700
O201        O  0.32479408  0.11712567  0.66108003    -0.54700
O202        O  0.27889636  0.16833885  0.79727130    -0.53800
C203        C  0.40325898  0.17674685  0.54073765     0.83000
N204        N  0.38488211  0.16324425  0.50215863    -0.75300
C205        C  0.39779159  0.16025731  0.96113711     0.85400
N206        N  0.42657270  0.18395887  0.95606237    -0.75300
C207        C  0.44055244  0.21303437  0.48634240     0.85500
N208        N  0.43093310  0.20168503  0.53257754    -0.77000
C209        C  0.37903286  0.14569985  0.91787103    -0.13700
C210        C  0.38690153  0.15881608  0.87221963    -0.28800
H211        H  0.35700430  0.12538035  0.92424471     0.15400
H212        H  0.40836313  0.18006005  0.86569659     0.15900
C213        C  0.39260032  0.16686082  0.59172623    -0.13700
C214        C  0.36540670  0.14242895  0.60242926    -0.28800
H215        H  0.40669377  0.18161421  0.62121432     0.15400
H216        H  0.35122671  0.12768346  0.57304949     0.15900
C217        C  0.30144601  0.96686850  0.75316821    -0.13700
C218        C  0.28211280  0.99978235  0.75059037    -0.28800
H219        H  0.32811065  0.97227881  0.75511750     0.15400
H220        H  0.25544211  0.99450321  0.74854840     0.15900
C221        C  0.19739406  0.79993482  0.87844813    -0.13700
C222        C  0.20409536  0.81136800  0.92494560    -0.28800
H223        H  0.17696718  0.77751872  0.87097199     0.15400
H224        H  0.22517808  0.83283304  0.93220405     0.15900
C225        C  0.19345078  0.79902994  0.60304908    -0.13700
C226        C  0.22505255  0.81143610  0.61099548    -0.28800
H227        H  0.17608785  0.79442584  0.63394071     0.15400
H228        H  0.24273930  0.81441650  0.58027587     0.15900
C229        C  0.35740750  0.72764695  0.74447014    -0.13700
C230        C  0.34215234  0.74884616  0.78106049    -0.28800
H231        H  0.34940887  0.73028075  0.70712003     0.15400
H232        H  0.35068701  0.74739497  0.81824391     0.15900
C233        C  0.47055054  0.24084680  0.47794833    -0.13700
C234        C  0.48732876  0.25859055  0.51549978    -0.28800
H235        H  0.48710114  0.22502131  0.95618265     0.15400
H236        H  0.47894409  0.25256199  0.55301995     0.15900
C237        C  0.09150773  0.71824548  0.53664798    -0.13700
C238        C  0.11033171  0.73021983  0.49735600    -0.28800
H239        H  0.09833533  0.72911145  0.57316096     0.15400
H240        H  0.10444401  0.71598358  0.95529370     0.15900
C241        C  0.92935281  0.66138483  0.86786829    -0.13700
C242        C  0.95928942  0.64525838  0.87038383    -0.28800
H243        H  0.91529224  0.66809080  0.90154845     0.15000
H244        H  0.97387913  0.63950707  0.83697230     0.15900
C245        C  0.93213061  0.66831339  0.68574901    -0.13700
C246        C  0.95606817  0.64115940  0.67679155    -0.28800
H247        H  0.92306509  0.68560639  0.65547679     0.15400
H248        H  0.96494200  0.62286666  0.70634054     0.15900
C249        C  0.02439980  0.48668502  0.00161383    -0.13700
C250        C  0.05515524  0.47239559  0.99796825    -0.28800
H251        H  0.00307884  0.46450674  0.00203688     0.15400
H252        H  0.07815800  0.50577327  0.51799146     0.15900
C253        C  0.14512586  0.30317237  0.83125374    -0.13700
C254        C  0.11534638  0.31921478  0.84006667    -0.28800
H255        H  0.15929244  0.29436664  0.86220039     0.15400
H256        H  0.10050749  0.32748235  0.80964681     0.15900
C257        C  0.11799265  0.32618536  0.64388341    -0.13700
C258        C  0.14836729  0.31194707  0.64797297    -0.28800
H259        H  0.10264158  0.33132491  0.67670603     0.15400
H260        H  0.16337030  0.30645830  0.61485869     0.15900
C261        C  0.23387263  0.24179076  0.73099958    -0.13700
C262        C  0.24525561  0.22172014  0.76927677    -0.28800
H263        H  0.24538705  0.23751021  0.69482723     0.15400
H264        H  0.23332309  0.22482329  0.80531157     0.15900
C265        C  0.65414293  0.29118546  0.20129217     0.83000
N266        N  0.68148970  0.26817663  0.19840640    -0.75300
C267        C  0.69527035  0.25474937  0.23935389     0.85400
N268        N  0.68150857  0.26443287  0.28391826    -0.75300
C269        C  0.65426834  0.28767388  0.28793560     0.85500
N270        N  0.64036376  0.30107675  0.24635887    -0.77000
O271        O  0.46221875  0.67725215  0.05247012    -0.55000
C272        C  0.46751640  0.64971984  0.42306587     0.77600
O273        O  0.54661165  0.68256944  0.98028621    -0.56200
C274        C  0.45546831  0.65180856  0.08670702     0.77600
C275        C  0.51888193  0.53868457  0.50486499     0.79900
Cd276      Cd  0.50155778  0.63117206  0.00764863     1.37500
O277        O  0.47243417  0.67413143  0.45945798    -0.55000
O278        O  0.48380378  0.55565121  0.00596644    -0.53900
C279        C  0.56146593  0.68476895  0.02033306     0.79900
O280        O  0.53607251  0.56951719  0.01247267    -0.56200
O281        O  0.48219332  0.61538254  0.42253209    -0.54700
O282        O  0.46940690  0.61709173  0.08369475    -0.54700
O283        O  0.55070826  0.66857623  0.54870304    -0.53800
O284        O  0.61390578  0.31198981  0.43632624    -0.55000
C285        C  0.59786082  0.33258465  0.10303802     0.77600
O286        O  0.03815468  0.39886579  0.99493263    -0.56200
C287        C  0.60313714  0.33003989  0.39950151     0.77600
C288        C  0.01574961  0.28223218  0.00507891     0.79900
Cd289      Cd  0.57491007  0.34437807  0.49818075     1.37500
O290        O  0.61084175  0.32150330  0.06205513    -0.55000
O291        O  0.03587126  0.28550022  0.48298130    -0.53900
C292        C  0.56168221  0.43321648  0.50112913     0.79900
O293        O  0.02717553  0.30621312  0.03845061    -0.56200
O294        O  0.57104475  0.35090713  0.10120586    -0.54700
O295        O  0.58028538  0.35504805  0.40839637    -0.54700
O296        O  0.59077568  0.42053797  0.49639805    -0.53800
C297        C  0.41740381  0.65207088  0.21606294     0.83000
N298        N  0.91416937  0.68992358  0.23115168    -0.75300
C299        C  0.90157741  0.70458731  0.27492926     0.85400
N300        N  0.91430206  0.69205169  0.31752739    -0.75300
C301        C  0.42257575  0.65202183  0.30165100     0.85500
N302        N  0.43058693  0.63663804  0.25644481    -0.77000
C303        C  0.67910621  0.79135571  0.04812499     0.83000
N304        N  0.69447117  0.80888210  0.00791190    -0.75300
C305        C  0.69310090  0.79156589  0.45585633     0.85400
N306        N  0.66591548  0.76528155  0.44928423    -0.75300
C307        C  0.63722645  0.76154847  0.99786635     0.85500
N308        N  0.65054539  0.76752088  0.04284509    -0.77000
O309        O  0.73025283  0.78658724  0.28443701    -0.55000
C310        C  0.73916591  0.82248651  0.15147492     0.77600
O311        O  0.81703360  0.88819564  0.24658237    -0.56200
C312        C  0.73217341  0.80503867  0.32582586     0.77600
C313        C  0.83092079  0.77387786  0.23915554     0.79900
Cd314      Cd  0.77518636  0.82892920  0.24244614     1.37500
O315        O  0.73045460  0.79998793  0.18777509    -0.55000
O316        O  0.81887610  0.78803921  0.27916370    -0.53900
C317        C  0.79672608  0.91710359  0.25027618     0.79900
O318        O  0.81723982  0.78464192  0.20080552    -0.56200
O319        O  0.76402455  0.84752993  0.15719697    -0.54700
O320        O  0.75373605  0.83512912  0.32906503    -0.54700
O321        O  0.76632924  0.90546425  0.25172759    -0.53800
O322        O  0.85915651  0.15930267  0.19203493    -0.55000
C323        C  0.86507265  0.14667099  0.33046668     0.77600
O324        O  0.77688865  0.16467953  0.30207191    -0.56200
C325        C  0.84651800  0.14059815  0.15515299     0.77600
C326        C  0.79877067  0.03813415  0.25380627     0.79900
Cd327      Cd  0.81927740  0.12665942  0.25293452     1.37500
O328        O  0.87028970  0.16014205  0.28753965    -0.55000
O329        O  0.82906999  0.05008410  0.25024645    -0.53900
C330        C  0.76591186  0.18367696  0.26644650     0.79900
O331        O  0.77826310  0.06681258  0.25726421    -0.56200
O332        O  0.83952341  0.12267753  0.33717279    -0.54700
O333        O  0.82223533  0.11499151  0.16370255    -0.54700
O334        O  0.77977950  0.17689802  0.22511070    -0.53800
C335        C  0.89687004  0.18157245  0.04248273     0.83000
N336        N  0.87894347  0.16714336  0.00374958    -0.75300
C337        C  0.89855394  0.16734665  0.45930477     0.85400
N338        N  0.92618949  0.19301047  0.45250726    -0.75300
C339        C  0.93741549  0.21120688  0.98760782     0.85500
N340        N  0.92595885  0.20376992  0.03418017    -0.77000
C341        C  0.87987370  0.14948270  0.41742728    -0.13700
C342        C  0.88717703  0.15974048  0.37064422    -0.28800
H343        H  0.85805522  0.12932048  0.42580121     0.15400
H344        H  0.90857434  0.18049614  0.36195695     0.15900
C345        C  0.88504675  0.17396322  0.09354175    -0.13700
C346        C  0.85871709  0.14804964  0.10437971    -0.28800
H347        H  0.89861441  0.18973586  0.12295043     0.15400
H348        H  0.84544940  0.13167739  0.07509217     0.15900
C349        C  0.80836586  0.96188712  0.25205289    -0.13700
C350        C  0.78733727  0.99329548  0.25372123    -0.28800
H351        H  0.83490131  0.96912737  0.25100172     0.15400
H352        H  0.76080805  0.98601111  0.25473627     0.15900
C353        C  0.71024220  0.79145175  0.36761844    -0.13700
C354        C  0.71410026  0.80665146  0.41360301    -0.28800
H355        H  0.69101794  0.76728613  0.36040989     0.15400
H356        H  0.73396102  0.82995995  0.42086461     0.15900
C357        C  0.69422836  0.79588953  0.09693930    -0.13700
C358        C  0.72213817  0.81979391  0.10424706    -0.28800
H359        H  0.68259159  0.77841914  0.12718889     0.15400
H360        H  0.73344215  0.83784232  0.07422249     0.15900
C361        C  0.87396628  0.73360137  0.27700522    -0.13700
C362        C  0.85925781  0.74612936  0.23666413    -0.28800
H363        H  0.86511708  0.74436968  0.31295745     0.15400
H364        H  0.86791554  0.73540588  0.20061266     0.15900
C365        C  0.96893808  0.23553489  0.97808879    -0.13700
C366        C  0.98554704  0.25544433  0.01426279    -0.28800
H367        H  0.98481124  0.23763266  0.44870534     0.15400
H368        H  0.97592489  0.25377313  0.05185273     0.15900
C369        C  0.59181195  0.71190800  0.02755835    -0.13700
C370        C  0.60644690  0.73493596  0.99132897    -0.28800
H371        H  0.60250185  0.71252627  0.06355755     0.15400
H372        H  0.61079584  0.71505725  0.44319161     0.15900
C373        C  0.44066872  0.63746380  0.34366193    -0.13700
C374        C  0.44571271  0.66160263  0.38386404    -0.28800
H375        H  0.45302209  0.60792673  0.33923448     0.15000
H376        H  0.43448007  0.69194754  0.38749126     0.15900
C377        C  0.43038797  0.63771447  0.16789784    -0.13700
C378        C  0.43372582  0.66290211  0.12908018    -0.28800
H379        H  0.44228705  0.60780090  0.16670401     0.15400
H380        H  0.42344083  0.69382910  0.13065778     0.15900
C381        C  0.52488331  0.49326000  0.50666092    -0.13700
C382        C  0.55539991  0.47859472  0.50066421    -0.28800
H383        H  0.50374446  0.47148066  0.51348681     0.15400
H384        H  0.56941344  0.50293257  0.01548890     0.15900
C385        C  0.64052313  0.29659996  0.33807842    -0.13700
C386        C  0.61590265  0.32251013  0.34846538    -0.28800
H387        H  0.65174603  0.28127919  0.36809119     0.15400
H388        H  0.60471712  0.33853242  0.31898906     0.15900
C389        C  0.61224745  0.32425192  0.15103543    -0.13700
C390        C  0.63997931  0.30325807  0.15442951    -0.28800
H391        H  0.59905626  0.33441238  0.18422569     0.15400
H392        H  0.65275599  0.29312087  0.12084052     0.15900
C393        C  0.72448995  0.22889398  0.23444343    -0.13700
C394        C  0.73808691  0.21164583  0.27295398    -0.28800
H395        H  0.73451824  0.22286683  0.19763396     0.15400
H396        H  0.72797330  0.21694457  0.30983971     0.15900
C397        C  0.64514398  0.31129754  0.71269132     0.83000
N398        N  0.67303210  0.28942969  0.70585124    -0.75300
C399        C  0.68866603  0.27472510  0.74472099     0.85400
N400        N  0.67621782  0.28193802  0.79089471    -0.75300
C401        C  0.64851174  0.30390092  0.79857623     0.85500
N402        N  0.63296861  0.31852754  0.75922615    -0.77000
O403        O  0.45931914  0.65884490  0.54620456    -0.55000
C404        C  0.47452816  0.64053915  0.91257820     0.77600
O405        O  0.55731541  0.66890822  0.47037872    -0.56200
C406        C  0.46529151  0.64697568  0.58861876     0.77600
C407        C  0.51243784  0.54204695  0.00933742     0.79900
Cd408      Cd  0.50712072  0.62806444  0.50450190     1.37500
O409        O  0.46233776  0.65872889  0.95024073    -0.55000
O410        O  0.49065493  0.55240153  0.51524253    -0.53900
C411        C  0.56790583  0.68080835  0.51182659     0.79900
O412        O  0.54141634  0.56591196  0.49300413    -0.56200
O413        O  0.49894768  0.61828499  0.91893584    -0.54700
O414        O  0.49056958  0.62553673  0.59257606    -0.54700
O415        O  0.54889251  0.66232636  0.05442725    -0.53800
O416        O  0.60784853  0.32090648  0.94956498    -0.55000
C417        C  0.61613275  0.32651267  0.58068411     0.77600
O418        O  0.03906165  0.41197466  0.49840755    -0.56200
C419        C  0.59511625  0.33671794  0.91272926     0.77600
C420        C  0.01223932  0.29422707  0.51238606     0.79900
Cd421      Cd  0.56523324  0.34692424  0.01119733     1.37500
O422        O  0.59303751  0.35182101  0.58468171    -0.55000
O423        O  0.03140759  0.28305152  0.96421925    -0.53900
C424        C  0.55339754  0.43573100  0.01156681     0.79900
O425        O  0.01587899  0.32791806  0.53728175    -0.56200
O426        O  0.62137622  0.31073139  0.53826389    -0.54700
O427        O  0.56951534  0.35717774  0.92156746    -0.54700
O428        O  0.58201769  0.42245670  0.01662385    -0.53800
C429        C  0.43093804  0.66493721  0.71936935     0.83000
N430        N  0.89008850  0.70080541  0.73734464    -0.75300
C431        C  0.87559092  0.71107771  0.78121494     0.85400
N432        N  0.88825868  0.69734901  0.82301317    -0.75300
C433        C  0.42403057  0.67383828  0.80498055     0.85500
N434        N  0.44102445  0.65842926  0.76528704    -0.77000
C435        C  0.68314595  0.78955441  0.54157854     0.83000
N436        N  0.70150113  0.80369038  0.50206688    -0.75300
C437        C  0.68159921  0.80303633  0.96280910     0.85400
N438        N  0.65291138  0.77932933  0.95796288    -0.75300
C439        C  0.64728557  0.75111672  0.48849551     0.85500
N440        N  0.65619388  0.76321286  0.53453271    -0.77000
O441        O  0.70458791  0.82069972  0.78702311    -0.55000
C442        C  0.72981504  0.83618108  0.65248469     0.77600
O443        O  0.80090022  0.90442349  0.75758864    -0.56200
C444        C  0.71334850  0.82657433  0.83083804     0.77600
C445        C  0.80925554  0.78594948  0.74592856     0.79900
Cd446      Cd  0.75818761  0.84689993  0.74824186     1.37500
O447        O  0.71782668  0.81617203  0.68914730    -0.55000
O448        O  0.79575281  0.79813369  0.78578669    -0.53900
C449        C  0.78132060  0.93411643  0.75758057     0.79900
O450        O  0.79921628  0.80158932  0.70745848    -0.56200
O451        O  0.75372531  0.86224142  0.66052318    -0.54700
O452        O  0.74214106  0.84295535  0.83639436    -0.54700
O453        O  0.75084809  0.92369560  0.75458884    -0.53800
O454        O  0.85573671  0.16554653  0.69072995    -0.55000
C455        C  0.85525919  0.15999946  0.82844472     0.77600
O456        O  0.77501847  0.19776182  0.72301922    -0.56200
C457        C  0.84401001  0.14597407  0.65380745     0.77600
C458        C  0.78701119  0.05457861  0.75312138     0.79900
Cd459      Cd  0.81101093  0.14124970  0.74934338     1.37500
O460        O  0.86071021  0.17513774  0.78634431    -0.55000
O461        O  0.81720163  0.06511345  0.75927151    -0.53900
C462        C  0.75895230  0.20033927  0.76344123     0.79900
O463        O  0.76809551  0.08394879  0.74530241    -0.56200
O464        O  0.82991035  0.13542995  0.83371020    -0.54700
O465        O  0.81735782  0.12424986  0.66103145    -0.54700
O466        O  0.76737099  0.17671699  0.79679513    -0.53800
C467        C  0.90179796  0.17792308  0.54491123     0.83000
N468        N  0.88656725  0.15990343  0.50552032    -0.75300
C469        C  0.89003465  0.17475451  0.95709265     0.85400
N470        N  0.91934639  0.19669604  0.94925709    -0.75300
C471        C  0.94157709  0.21126674  0.49168678     0.85500
N472        N  0.92917498  0.20372236  0.53776576    -0.77000
C473        C  0.86955276  0.16033448  0.91560621    -0.13700
C474        C  0.87721794  0.17133349  0.86914934    -0.28800
H475        H  0.84689272  0.14170397  0.92377686     0.15400
H476        H  0.89941022  0.19082600  0.86090994     0.15900
C477        C  0.88793596  0.17177285  0.59520804    -0.13700
C478        C  0.85978955  0.14862966  0.60438063    -0.28800
H479        H  0.90049798  0.18809155  0.62519990     0.15400
H480        H  0.84716175  0.13220942  0.57453662     0.15900
C481        C  0.79388191  0.97839749  0.76000369    -0.13700
C482        C  0.77411413  0.01045891  0.75436682    -0.28800
H483        H  0.82027994  0.98463719  0.76450641     0.15400
H484        H  0.74780481  0.00417393  0.74907331     0.15900
C485        C  0.69138317  0.81368963  0.87302214    -0.13700
C486        C  0.70060119  0.82013202  0.91966657    -0.28800
H487        H  0.66801878  0.79696119  0.86547457     0.15400
H488        H  0.72401866  0.83700359  0.92663327     0.15900
C489        C  0.69289708  0.80068133  0.59225057    -0.13700
C490        C  0.71772955  0.82888734  0.60233296    -0.28800
H491        H  0.67977759  0.78422696  0.62208175     0.15400
H492        H  0.73066486  0.84584930  0.57273121     0.15900
C493        C  0.84741011  0.73892341  0.78392302    -0.13700
C494        C  0.83561512  0.75562583  0.74361618    -0.28800
H495        H  0.83691243  0.74698545  0.81987672     0.15400
H496        H  0.84613397  0.74777161  0.70761603     0.15900
C497        C  0.97158820  0.23909800  0.48396807    -0.13700
C498        C  0.98210376  0.26668639  0.51877212    -0.28800
H499        H  0.97803202  0.23839491  0.94032136     0.15400
H500        H  0.96763445  0.27020598  0.55275424     0.15900
C501        C  0.59843025  0.70769983  0.51823133    -0.13700
C502        C  0.61745213  0.72296141  0.48064575    -0.28800
H503        H  0.60513523  0.71559240  0.55566771     0.15400
H504        H  0.59592816  0.73358946  0.95518644     0.15900
C505        C  0.43553349  0.66796430  0.85497307    -0.13700
C506        C  0.46164282  0.64497424  0.86332482    -0.28800
H507        H  0.42258919  0.68332267  0.88536476     0.15000
H508        H  0.47441722  0.62923157  0.83306208     0.15900
C509        C  0.45081388  0.64968800  0.67695194    -0.13700
C510        C  0.44384776  0.65861265  0.63078353    -0.28800
H511        H  0.47255170  0.63218981  0.68404689     0.15400
H512        H  0.42241464  0.67662076  0.62355556     0.15900
C513        C  0.51763396  0.49641926  0.00921400    -0.13700
C514        C  0.54788353  0.48127232  0.01225391    -0.28800
H515        H  0.49604196  0.47481554  0.00621138     0.15400
H516        H  0.57655264  0.50052196  0.49467018     0.15900
C517        C  0.63554109  0.31016320  0.84982849    -0.13700
C518        C  0.60854949  0.33180728  0.86160437    -0.28800
H519        H  0.64862693  0.29602843  0.87887368     0.15400
H520        H  0.59542423  0.34613036  0.83275391     0.15900
C521        C  0.63564510  0.31504781  0.62309078    -0.13700
C522        C  0.62730196  0.32588492  0.66991407    -0.28800
H523        H  0.65647218  0.29531412  0.61560605     0.15400
H524        H  0.60588760  0.34463448  0.67729963     0.15900
C525        C  0.71825594  0.24969126  0.73609281    -0.13700
C526        C  0.73141617  0.22853801  0.77212089    -0.28800
H527        H  0.72846145  0.24701929  0.69887137     0.15400
H528        H  0.72061576  0.23014528  0.80906331     0.15900
loop_ 
_geom_bond_atom_site_label_1 
_geom_bond_atom_site_label_2 
_geom_bond_distance 
_geom_bond_site_symmetry_2 
_ccdc_geom_bond_type 
C1            N2   1.362       .  A
C1            N6   1.367       .  A
C1          C126   1.490       .  S
N2            C3   1.359       .  A
C3            N4   1.358       .  A
C3          C129   1.481       .  S
N4            C5   1.356       .  A
C5            N6   1.365       .  A
C5          C121   1.488       .  S
O7           C10   1.266       .  A
O7          Cd12   2.487   1_655  S
C8          C110   1.483       .  S
C8           O17   1.264       .  A
C8           O13   1.266       .  A
O9           C15   1.265   1_556  A
O9          Cd12   2.493   1_556  S
C10         C114   1.481       .  S
C10          O18   1.267       .  A
C11         C117   1.473       .  S
C11         O148   1.266       .  A
C11         O146   1.264   1_455  A
Cd12         O18   2.472   1_455  S
Cd12         O16   2.481       .  S
Cd12         O14   2.489   1_455  S
Cd12        O151   2.470       .  S
Cd12        O149   2.472   1_554  S
Cd12        O145   2.491   1_454  S
O13        Cd144   2.506   1_655  S
O14         C143   1.264   1_655  A
C15         C105   1.476       .  S
C15         O151   1.261       .  A
O16         C143   1.264       .  A
O17        Cd144   2.461   1_655  S
O19         C147   1.260       .  A
O19        Cd144   2.462       .  S
O20          C23   1.271       .  A
O20         Cd25   2.520       .  S
C21         C125   1.486       .  S
C21          O30   1.264       .  A
C21          O26   1.267       .  A
O22         C424   1.267       .  A
O22        Cd421   2.474       .  S
C23         C122   1.487       .  S
C23          O31   1.264       .  A
C24         C102   1.472       .  S
C24          O29   1.261       .  A
C24         O159   1.264   1_554  A
Cd25         O32   2.480       .  S
Cd25         O31   2.470       .  S
Cd25        O418   2.445       .  S
Cd25        O162   2.461       .  S
Cd25        O158   2.529       .  S
Cd25        O425   2.462       .  S
Cd25        O291   2.500       .  S
O26        Cd157   2.506   1_554  S
O27         C156   1.262       .  A
O27        Cd289   2.499       .  S
C28         C118   1.475       .  S
C28          O32   1.265       .  A
C28         O418   1.265       .  A
O29        Cd421   2.461       .  S
O30        Cd157   2.493   1_554  S
C33          N38   1.355       .  A
C33         N298   1.361       .  A
C33         C113   1.480       .  S
N34          C35   1.363       .  A
N34         C297   1.361       .  A
C35          N36   1.363       .  A
C35          C97   1.484       .  S
N36         C301   1.362       .  A
C37          N38   1.356       .  A
C37         N300   1.361       .  A
C37         C109   1.480       .  S
C39          N40   1.360       .  A
C39          N44   1.359       .  A
C39          C93   1.480       .  S
N40         C173   1.358   1_554  A
C41          N42   1.363       .  A
C41         N172   1.358       .  A
C41          C90   1.480       .  S
N42         C175   1.361       .  A
C43          N44   1.362       .  A
C43         N174   1.357   1_554  A
C43         C106   1.479   1_554  S
O45          C48   1.263       .  A
O45         Cd50   2.489       .  S
C46          C94   1.477       .  S
C46          O55   1.265       .  A
C46          O51   1.267       .  A
O47          C53   1.264       .  A
O47         Cd50   2.481       .  S
C48          C89   1.480       .  S
C48          O56   1.265       .  A
C49          C98   1.480       .  S
C49          O54   1.262       .  A
C49          O52   1.264       .  A
Cd50         O57   2.481       .  S
Cd50         O56   2.482       .  S
Cd50         O55   2.468       .  S
Cd50         O51   2.480       .  S
Cd50         O54   2.481       .  S
Cd50         O52   2.503       .  S
C53          C85   1.478       .  S
C53          O57   1.265       .  A
O58          C61   1.266       .  A
O58         Cd63   2.483       .  S
C59          C78   1.481       .  S
C59          O68   1.266       .  A
C59          O64   1.265       .  A
O60          C66   1.262       .  A
O60         Cd63   2.473       .  S
C61          C82   1.478       .  S
C61          O69   1.264       .  A
C62          C86   1.476   1_545  S
C62          O67   1.262       .  A
C62          O65   1.265       .  A
Cd63         O70   2.497       .  S
Cd63         O69   2.472       .  S
Cd63         O68   2.477       .  S
Cd63         O64   2.487       .  S
Cd63         O67   2.468       .  S
Cd63         O65   2.490       .  S
C66         C130   1.475       .  S
C66          O70   1.263       .  A
C71          N72   1.360       .  A
C71          N76   1.357       .  A
C71          C81   1.480       .  S
N72         C205   1.360   1_554  A
C73          N74   1.363       .  A
C73         N204   1.359       .  A
C73          C77   1.481       .  S
N74         C207   1.362       .  A
C75          N76   1.359   1_556  A
C75         N206   1.358       .  A
C75         C101   1.476       .  S
C77          C78   1.346       .  D
C77          H79   1.086       .  S
C78          H80   1.086       .  S
C81          C82   1.344       .  D
C81          H83   1.087       .  S
C82          H84   1.086       .  S
C85          C86   1.344       .  D
C85          H87   1.087       .  S
C86          H88   1.087       .  S
C89          C90   1.344       .  D
C89          H91   1.086       .  S
C90          H92   1.086       .  S
C93          C94   1.345       .  D
C93          H95   1.087       .  S
C94          H96   1.087       .  S
C97          C98   1.346       .  D
C97          H99   1.087       .  S
C98         H100   1.086       .  S
C101        C102   1.343   1_556  D
C101        H235   1.086       .  S
C102        H104   1.086       .  S
H103        C233   1.086       .  S
C105        C106   1.343   1_554  D
C105        H107   1.087       .  S
C106        H240   1.088       .  S
H108        C238   1.088       .  S
C109        C110   1.346       .  D
C109        H111   1.085       .  S
C110        H112   1.084       .  S
C113        C114   1.345       .  D
C113        H115   1.085       .  S
C114        H116   1.084       .  S
C117        C118   1.344       .  D
C117        H119   1.089       .  S
C118        H252   1.089       .  S
H120        C250   1.087       .  S
C121        C122   1.344       .  D
C121        H123   1.087       .  S
C122        H124   1.086       .  S
C125        C126   1.353       .  D
C125        H127   1.084       .  S
C126        H128   1.085       .  S
C129        C130   1.346       .  D
C129        H131   1.087       .  S
C130        H132   1.087       .  S
C133        N134   1.356       .  A
C133        N138   1.369       .  A
C133        C258   1.484       .  S
N134        C135   1.354       .  A
C135        N136   1.356       .  A
C135        C261   1.475       .  S
N136        C137   1.358       .  A
C137        N138   1.368       .  A
C137        C253   1.485       .  S
O139        C142   1.267       .  A
O139       Cd144   2.469   1_655  S
C140        C242   1.480       .  S
C140        O149   1.264   1_655  A
C140        O145   1.267       .  A
O141        C147   1.263       .  A
O141       Cd144   2.499       .  S
C142        C246   1.481       .  S
C142        O150   1.264       .  A
C143        C249   1.479       .  S
Cd144       O150   2.488   1_455  S
Cd144       O148   2.476       .  S
Cd144       O146   2.457   1_455  S
C147        C237   1.473       .  S
O152        C155   1.269       .  A
O152       Cd157   2.498       .  S
C153        C257   1.484       .  S
C153        O162   1.260       .  A
C153        O158   1.270       .  A
O154        C292   1.266       .  A
O154       Cd289   2.483       .  S
C155        C254   1.488       .  S
C155        O163   1.264       .  A
C156        C234   1.474       .  S
C156        O161   1.260       .  A
Cd157       O286   2.477       .  S
Cd157       O164   2.483       .  S
Cd157       O163   2.494       .  S
Cd157       O293   2.459   1_556  S
Cd157       O423   2.500       .  S
O159       Cd421   2.497   1_556  S
C160        C250   1.478       .  S
C160        O286   1.264       .  A
C160        O164   1.265       .  A
O161       Cd289   2.473       .  S
C165        N430   1.355       .  A
C165        N170   1.363       .  A
C165        C245   1.478       .  S
N166        C429   1.359       .  A
N166        C167   1.357       .  A
C167        N168   1.360       .  A
C167        C229   1.476       .  S
N168        C433   1.358       .  A
C169        N432   1.360       .  A
C169        N170   1.366       .  A
C169        C241   1.481       .  S
C171        N172   1.358       .  A
C171        N176   1.355       .  A
C171        C225   1.478       .  S
C173        N174   1.359       .  A
C173        C222   1.478       .  S
C175        N176   1.360       .  A
C175        C238   1.480       .  S
O177        C180   1.264       .  A
O177       Cd182   2.471       .  S
C178        C226   1.474       .  S
C178        O187   1.264       .  A
C178        O183   1.267       .  A
O179        C185   1.262       .  A
O179       Cd182   2.461       .  S
C180        C221   1.475       .  S
C180        O188   1.265       .  A
C181        C230   1.472       .  S
C181        O186   1.261       .  A
C181        O184   1.264       .  A
Cd182       O189   2.498       .  S
Cd182       O188   2.470       .  S
Cd182       O187   2.451       .  S
Cd182       O183   2.482       .  S
Cd182       O186   2.462       .  S
Cd182       O184   2.481       .  S
C185        C217   1.476       .  S
C185        O189   1.266       .  A
O190        C193   1.267       .  A
O190       Cd195   2.489       .  S
C191        C210   1.477       .  S
C191        O200   1.265       .  A
C191        O196   1.265       .  A
O192        C198   1.263       .  A
O192       Cd195   2.474       .  S
C193        C214   1.475       .  S
C193        O201   1.263       .  A
C194        C218   1.478   1_545  S
C194        O199   1.264       .  A
C194        O197   1.267       .  A
Cd195       O202   2.477       .  S
Cd195       O201   2.457       .  S
Cd195       O200   2.468       .  S
Cd195       O196   2.482       .  S
Cd195       O199   2.469       .  S
Cd195       O197   2.477       .  S
C198        C262   1.473       .  S
C198        O202   1.261       .  A
C203        N204   1.359       .  A
C203        N208   1.355       .  A
C203        C213   1.479       .  S
C205        N206   1.360       .  A
C205        C209   1.479       .  S
C207        N208   1.359       .  A
C207        C233   1.481       .  S
C209        C210   1.346       .  D
C209        H211   1.086       .  S
C210        H212   1.086       .  S
C213        C214   1.343       .  D
C213        H215   1.087       .  S
C214        H216   1.086       .  S
C217        C218   1.342       .  D
C217        H219   1.087       .  S
C218        H220   1.087       .  S
C221        C222   1.345       .  D
C221        H223   1.086       .  S
C222        H224   1.087       .  S
C225        C226   1.343       .  D
C225        H227   1.087       .  S
C226        H228   1.087       .  S
C229        C230   1.342       .  D
C229        H231   1.086       .  S
C230        H232   1.086       .  S
C233        C234   1.346       .  D
C234        H236   1.086       .  S
C237        C238   1.345       .  D
C237        H239   1.087       .  S
C241        C242   1.344       .  D
C241        H243   1.087       .  S
C242        H244   1.086       .  S
C245        C246   1.342       .  D
C245        H247   1.087       .  S
C246        H248   1.086       .  S
C249        C250   1.346   1_554  D
C249        H251   1.087       .  S
C253        C254   1.344       .  D
C253        H255   1.087       .  S
C254        H256   1.086       .  S
C257        C258   1.340       .  D
C257        H259   1.087       .  S
C258        H260   1.087       .  S
C261        C262   1.343       .  D
C261        H263   1.086       .  S
C262        H264   1.086       .  S
C265        N266   1.356       .  A
C265        N270   1.370       .  A
C265        C390   1.486       .  S
N266        C267   1.353       .  A
C267        N268   1.356       .  A
C267        C393   1.475       .  S
N268        C269   1.358       .  A
C269        N270   1.370       .  A
C269        C385   1.486       .  S
O271        C274   1.264       .  A
O271       Cd276   2.490       .  S
C272        C374   1.478       .  S
C272        O281   1.269       .  A
C272        O277   1.262       .  A
O273        C279   1.264   1_556  A
O273       Cd276   2.494   1_556  S
C274        C378   1.476       .  S
C274        O282   1.265       .  A
C275        C381   1.479       .  S
C275        O412   1.265       .  A
C275        O410   1.264       .  A
Cd276       O415   2.490       .  S
Cd276       O282   2.450       .  S
Cd276       O413   2.452   1_554  S
Cd276       O409   2.473   1_554  S
Cd276       O280   2.472       .  S
Cd276       O278   2.473       .  S
O277       Cd408   2.457       .  S
O278        C407   1.264       .  A
C279        C369   1.482       .  S
C279        O415   1.264       .  A
O280        C407   1.267       .  A
O281       Cd408   2.502       .  S
O283        C411   1.262       .  A
O283       Cd408   2.465       .  S
O284        C287   1.269       .  A
O284       Cd289   2.511       .  S
C285        C389   1.486       .  S
C285        O294   1.260       .  A
C285        O290   1.270       .  A
C287        C386   1.488       .  S
C287        O295   1.264       .  A
C288        C366   1.472   1_455  S
C288        O293   1.260       .  A
C288        O423   1.264   1_554  A
Cd289       O296   2.476       .  S
Cd289       O295   2.483       .  S
Cd289       O426   2.505       .  S
Cd289       O422   2.499       .  S
O290       Cd421   2.523       .  S
O291        C420   1.265       .  A
C292        C382   1.478       .  S
C292        O296   1.265       .  A
O294       Cd421   2.476       .  S
C297        N302   1.353       .  A
C297        C377   1.471       .  S
N298        C299   1.364       .  A
C299        N300   1.363       .  A
C299        C361   1.483       .  S
C301        N302   1.352       .  A
C301        C373   1.477       .  S
C303        N304   1.360       .  A
C303        N308   1.360       .  A
C303        C357   1.486       .  S
N304        C437   1.358   1_554  A
C305        N436   1.360       .  A
C305        N306   1.363       .  A
C305        C354   1.484       .  S
N306        C439   1.360       .  A
C307        N438   1.362       .  A
C307        N308   1.363   1_556  A
C307        C370   1.484       .  S
O309        C312   1.264       .  A
O309       Cd314   2.474       .  S
C310        C358   1.481       .  S
C310        O319   1.263       .  A
C310        O315   1.266       .  A
O311        C317   1.264       .  A
O311       Cd314   2.474       .  S
C312        C353   1.480       .  S
C312        O320   1.266       .  A
C313        C362   1.481       .  S
C313        O318   1.263       .  A
C313        O316   1.263       .  A
Cd314       O321   2.484       .  S
Cd314       O320   2.498       .  S
Cd314       O319   2.476       .  S
Cd314       O315   2.511       .  S
Cd314       O318   2.491       .  S
Cd314       O316   2.497       .  S
C317        C349   1.478       .  S
C317        O321   1.267       .  A
O322        C325   1.267       .  A
O322       Cd327   2.485       .  S
C323        C342   1.478       .  S
C323        O332   1.265       .  A
C323        O328   1.264       .  A
O324        C330   1.262       .  A
O324       Cd327   2.486       .  S
C325        C346   1.476       .  S
C325        O333   1.264       .  A
C326        C350   1.477   1_545  S
C326        O331   1.263       .  A
C326        O329   1.267       .  A
Cd327       O334   2.466       .  S
Cd327       O333   2.455       .  S
Cd327       O332   2.475       .  S
Cd327       O328   2.481       .  S
Cd327       O331   2.465       .  S
Cd327       O329   2.486       .  S
C330        C394   1.473       .  S
C330        O334   1.262       .  A
C335        N336   1.361       .  A
C335        N340   1.357       .  A
C335        C345   1.479       .  S
N336        C469   1.359   1_554  A
C337        N468   1.358       .  A
C337        N338   1.361       .  A
C337        C341   1.479       .  S
N338        C471   1.360       .  A
C339        N470   1.356       .  A
C339        N340   1.360   1_556  A
C339        C365   1.477       .  S
C341        C342   1.345       .  D
C341        H343   1.086       .  S
C342        H344   1.085       .  S
C345        C346   1.343       .  D
C345        H347   1.087       .  S
C346        H348   1.087       .  S
C349        C350   1.343       .  D
C349        H351   1.087       .  S
C350        H352   1.087       .  S
C353        C354   1.346       .  D
C353        H355   1.086       .  S
C354        H356   1.086       .  S
C357        C358   1.348       .  D
C357        H359   1.087       .  S
C358        H360   1.086       .  S
C361        C362   1.347       .  D
C361        H363   1.087       .  S
C362        H364   1.086       .  S
C365        C366   1.342   1_556  D
C365        H499   1.087       .  S
C366        H368   1.087       .  S
H367        C497   1.086       .  S
C369        C370   1.347   1_554  D
C369        H371   1.086       .  S
C370        H504   1.087       .  S
H372        C502   1.087       .  S
C373        C374   1.340       .  D
C373        H375   1.089       .  S
C374        H376   1.088       .  S
C377        C378   1.342       .  D
C377        H379   1.087       .  S
C378        H380   1.087       .  S
C381        C382   1.345       .  D
C381        H383   1.087       .  S
C382        H516   1.087       .  S
H384        C514   1.088       .  S
C385        C386   1.343       .  D
C385        H387   1.087       .  S
C386        H388   1.086       .  S
C389        C390   1.341       .  D
C389        H391   1.087       .  S
C390        H392   1.088       .  S
C393        C394   1.344       .  D
C393        H395   1.087       .  S
C394        H396   1.087       .  S
C397        N398   1.360       .  A
C397        N402   1.365       .  A
C397        C522   1.489       .  S
N398        C399   1.358       .  A
C399        N400   1.360       .  A
C399        C525   1.480       .  S
N400        C401   1.358       .  A
C401        N402   1.365       .  A
C401        C517   1.490       .  S
O403        C406   1.261       .  A
O403       Cd408   2.447       .  S
C404        C506   1.471       .  S
C404        O413   1.263       .  A
C404        O409   1.266       .  A
O405        C411   1.267       .  A
O405       Cd408   2.519       .  S
C406        C510   1.469       .  S
C406        O414   1.267       .  A
C407        C513   1.477       .  S
Cd408       O414   2.476       .  S
Cd408       O412   2.480       .  S
Cd408       O410   2.486       .  S
C411        C501   1.480       .  S
O416        C419   1.270       .  A
O416       Cd421   2.524   1_556  S
C417        C521   1.486       .  S
C417        O426   1.267       .  A
C417        O422   1.264       .  A
C419        C518   1.488       .  S
C419        O427   1.264       .  A
C420        C498   1.474   1_455  S
C420        O425   1.261       .  A
Cd421       O428   2.466       .  S
Cd421       O427   2.475   1_554  S
C424        C514   1.476       .  S
C424        O428   1.266       .  A
C429        N434   1.355       .  A
C429        C509   1.474       .  S
N430        C431   1.356       .  A
C431        N432   1.357       .  A
C431        C493   1.478       .  S
C433        N434   1.359       .  A
C433        C505   1.476       .  S
C435        N436   1.361       .  A
C435        N440   1.358       .  A
C435        C489   1.482       .  S
C437        N438   1.361       .  A
C437        C486   1.483       .  S
C439        N440   1.361       .  A
C439        C502   1.486       .  S
O441        C444   1.266       .  A
O441       Cd446   2.495       .  S
C442        C490   1.479       .  S
C442        O451   1.264       .  A
C442        O447   1.268       .  A
O443        C449   1.263       .  A
O443       Cd446   2.469       .  S
C444        C485   1.483       .  S
C444        O452   1.265       .  A
C445        C494   1.472       .  S
C445        O450   1.260       .  A
C445        O448   1.262       .  A
Cd446       O453   2.477       .  S
Cd446       O452   2.475       .  S
Cd446       O451   2.469       .  S
Cd446       O447   2.485       .  S
Cd446       O450   2.472       .  S
Cd446       O448   2.487       .  S
C449        C481   1.474       .  S
C449        O453   1.266       .  A
O454        C457   1.266       .  A
O454       Cd459   2.481       .  S
C455        C474   1.474       .  S
C455        O464   1.265       .  A
C455        O460   1.264       .  A
O456        C462   1.265       .  A
O456       Cd459   2.502       .  S
C457        C478   1.475       .  S
C457        O465   1.264       .  A
C458        C482   1.473       .  S
C458        O463   1.263       .  A
C458        O461   1.267       .  A
Cd459       O466   2.459       .  S
Cd459       O465   2.466       .  S
Cd459       O464   2.465       .  S
Cd459       O460   2.470       .  S
Cd459       O463   2.457       .  S
Cd459       O461   2.469       .  S
C462        C526   1.475       .  S
C462        O466   1.260       .  A
C467        N468   1.359       .  A
C467        N472   1.357       .  A
C467        C477   1.479       .  S
C469        N470   1.359       .  A
C469        C473   1.477       .  S
C471        N472   1.360       .  A
C471        C497   1.479       .  S
C473        C474   1.345       .  D
C473        H475   1.086       .  S
C474        H476   1.086       .  S
C477        C478   1.345       .  D
C477        H479   1.087       .  S
C478        H480   1.086       .  S
C481        C482   1.342   1_565  D
C481        H483   1.088       .  S
C482        H484   1.088       .  S
C485        C486   1.347       .  D
C485        H487   1.085       .  S
C486        H488   1.086       .  S
C489        C490   1.345       .  D
C489        H491   1.087       .  S
C490        H492   1.087       .  S
C493        C494   1.345       .  D
C493        H495   1.086       .  S
C494        H496   1.086       .  S
C497        C498   1.344       .  D
C498        H500   1.087       .  S
C501        C502   1.346       .  D
C501        H503   1.087       .  S
C505        C506   1.343       .  D
C505        H507   1.086       .  S
C506        H508   1.085       .  S
C509        C510   1.341       .  D
C509        H511   1.089       .  S
C510        H512   1.089       .  S
C513        C514   1.344       .  D
C513        H515   1.089       .  S
C517        C518   1.346       .  D
C517        H519   1.086       .  S
C518        H520   1.086       .  S
C521        C522   1.352       .  D
C521        H523   1.087       .  S
C522        H524   1.087       .  S
C525        C526   1.344       .  D
C525        H527   1.087       .  S
C526        H528   1.086       .  S
