geometry optimzed in LAMMPS
_audit_creation_date              2020-11-30 
_audit_creation_method            'lammps2cif' 
_symmetry_space_group_name_H-M    'P1' 
_symmetry_Int_Tables_number       1 
_symmetry_cell_setting            triclinic 
loop_ 
_symmetry_equiv_pos_as_xyz 
  x,y,z 
_cell_length_a                    25.09997386 
_cell_length_b                    25.172579039167424 
_cell_length_c                    25.138596591876674 
_cell_angle_alpha                 93.59052815052648 
_cell_angle_beta                  86.61375595111593 
_cell_angle_gamma                 87.03080604715198 
loop_ 
_atom_site_label 
_atom_site_type_symbol 
_atom_site_fract_x 
_atom_site_fract_y 
_atom_site_fract_z 
_atom_site_charge 
N1          N  0.53495269  0.04466951  0.57724145    -0.36000
N2          N  0.55506923  0.92810529  0.57284045    -0.56500
N3          N  0.54673483  0.92537462  0.45931783    -0.36000
N4          N  0.53133923  0.04092461  0.46394901    -0.56500
C5          C  0.55334302  0.03647919  0.62544386     0.27600
C6          C  0.54150092  0.09646290  0.56804474     0.27600
C7          C  0.55899048  0.87308236  0.46441254     0.27600
C8          C  0.55196223  0.93402021  0.40690424     0.27600
C9          C  0.54856532  0.93825618  0.62633525     0.36200
C10         C  0.55184255  0.87496408  0.56362732     0.36200
C11         C  0.51255914  0.09150848  0.47643357     0.36200
C12         C  0.51998316  0.02968270  0.41305274     0.36200
C13         C  0.57134521  0.08394966  0.64726332    -0.21300
C14         C  0.56372861  0.12179382  0.61099506    -0.21300
C15         C  0.57234542  0.84779930  0.41459423    -0.21300
C16         C  0.56842768  0.88644812  0.37834126    -0.21300
C17         C  0.54396428  0.89134648  0.65154825    -0.22300
C18         C  0.54545419  0.85143536  0.61178655    -0.22300
C19         C  0.48937011  0.11252736  0.43303082    -0.22300
C20         C  0.49396688  0.07322642  0.39282851    -0.22300
C21         C  0.54734191  0.98938858  0.65260025    -0.17700
C22         C  0.52573674  0.12128739  0.52249850    -0.17700
C23         C  0.53473089  0.98140417  0.38382552    -0.17700
C24         C  0.55390821  0.84728918  0.51249600    -0.17700
H25         H  0.58851799  0.09120681  0.68515807     0.15200
H26         H  0.57287235  0.16328578  0.61602608     0.15200
H27         H  0.58279840  0.80584458  0.40532248     0.15200
H28         H  0.57511412  0.87998557  0.33567171     0.15200
H29         H  0.53914374  0.88650642  0.69402111     0.13500
H30         H  0.54156809  0.80996621  0.61771028     0.13500
H31         H  0.47219770  0.15232060  0.42986330     0.13500
H32         H  0.48064704  0.07675059  0.35295708     0.13500
H33         H  0.51300066  0.01797991  0.55518935     0.26800
H34         H  0.52784701  0.95178832  0.48898955     0.26800
N35         N  0.03016622  0.40712373  0.46160249    -0.36000
N36         N  0.91403603  0.41492430  0.48107556    -0.56500
N37         N  0.91045781  0.52596935  0.45562435    -0.36000
N38         N  0.02373284  0.51655757  0.43350125    -0.56500
C39         C  0.02109561  0.36589729  0.49210539     0.27600
C40         C  0.07962507  0.42296916  0.47138747     0.27600
C41         C  0.85998055  0.52236104  0.47603179     0.27600
C42         C  0.92138019  0.57805389  0.46043250     0.27600
C43         C  0.92314181  0.36214003  0.48678495     0.36200
C44         C  0.86046820  0.42387467  0.48070912     0.36200
C45         C  0.07539642  0.50272613  0.41972492     0.36200
C46         C  0.01584104  0.56836271  0.42459371     0.36200
C47         C  0.06608741  0.35426134  0.51989530    -0.21300
C48         C  0.10265672  0.39089931  0.50742094    -0.21300
C49         C  0.83743807  0.57270673  0.49175683    -0.21300
C50         C  0.87631880  0.60788534  0.48229439    -0.21300
C51         C  0.87520680  0.33741439  0.49070395    -0.22300
C52         C  0.83554275  0.37656565  0.48675335    -0.22300
C53         C  0.09915987  0.54538094  0.39695017    -0.22300
C54         C  0.06212088  0.58748151  0.40224593    -0.22300
C55         C  0.97386540  0.33765530  0.49406635    -0.17700
C56         C  0.10379736  0.46672685  0.44980949    -0.17700
C57         C  0.97047454  0.59972089  0.44500635    -0.17700
C58         C  0.83352450  0.47480324  0.48015588    -0.17700
H59         H  0.07189171  0.32390573  0.54777906     0.15200
H60         H  0.14169079  0.39372394  0.52319366     0.15200
H61         H  0.79744152  0.58299237  0.50907095     0.15200
H62         H  0.87157893  0.65065542  0.49026733     0.15200
H63         H  0.86938338  0.29600253  0.49744047     0.13500
H64         H  0.79311059  0.37139113  0.48984952     0.13500
H65         H  0.14101489  0.54857403  0.38552110     0.13500
H66         H  0.06981884  0.62811571  0.39405356     0.13500
H67         H  0.00495121  0.42155527  0.43366613     0.26800
H68         H  0.93407003  0.49477233  0.43602727     0.26800
N69         N  0.47023350  0.43917998  0.96155038    -0.36000
N70         N  0.47798956  0.44934493  0.07425918    -0.56500
N71         N  0.59387193  0.43588986  0.04914650    -0.36000
N72         N  0.58422087  0.42204245  0.93270567    -0.56500
C73         C  0.41922223  0.43601647  0.98071086     0.27600
C74         C  0.47123509  0.43172913  0.90805520     0.27600
C75         C  0.58836419  0.42607335  0.10126627     0.27600
C76         C  0.64060600  0.41223210  0.02897439     0.27600
C77         C  0.43174238  0.47764410  0.06900442     0.36200
C78         C  0.50165415  0.47358221  0.11504670     0.36200
C79         C  0.56628409  0.44775937  0.89102210     0.36200
C80         C  0.63546166  0.43569907  0.93686184     0.36200
C81         C  0.38852556  0.42055897  0.93879526    -0.21300
C82         C  0.42090559  0.42005509  0.89262820    -0.21300
C83         C  0.63188267  0.39481770  0.11476492    -0.21300
C84         C  0.66559768  0.38704293  0.06907119    -0.21300
C85         C  0.42468815  0.51920967  0.10789086    -0.22300
C86         C  0.46928609  0.51647791  0.13739242    -0.22300
C87         C  0.60686382  0.47580910  0.86865545    -0.22300
C88         C  0.65106814  0.46686806  0.89617941    -0.22300
C89         C  0.39856236  0.46708672  0.02692930    -0.17700
C90         C  0.51297019  0.44886938  0.87491905    -0.17700
C91         C  0.66564088  0.42710129  0.98119636    -0.17700
C92         C  0.54730519  0.45028235  0.13648087    -0.17700
H93         H  0.34575744  0.41742236  0.94045371     0.15200
H94         H  0.40754326  0.41648726  0.85250445     0.15200
H95         H  0.64013623  0.38215052  0.15394848     0.15200
H96         H  0.70509593  0.36765164  0.06652242     0.15200
H97         H  0.39179061  0.54895987  0.11346809     0.13500
H98         H  0.47743599  0.54359065  0.17058412     0.13500
H99         H  0.60402002  0.50446718  0.83953948     0.13500
H100        H  0.68857048  0.48568840  0.89013102     0.13500
H101        H  0.49940683  0.45905803  0.98124385     0.26800
H102        H  0.57112054  0.46414965  0.03034080     0.26800
N103        N  0.95303769  0.43296059  0.90700631    -0.36000
N104        N  0.96621679  0.42691826  0.02092571    -0.56500
N105        N  0.91868537  0.53339753  0.03748305    -0.36000
N106        N  0.89886148  0.53983865  0.92481623    -0.56500
C107        C  0.95916863  0.37979561  0.91237567     0.27600
C108        C  0.92644026  0.43975586  0.86266070     0.27600
C109        C  0.92770622  0.52385648  0.08864409     0.27600
C110        C  0.90274912  0.58539000  0.03678546     0.27600
C111        C  0.00080923  0.38876342  0.99726544     0.36200
C112        C  0.98374642  0.43922442  0.06942076     0.36200
C113        C  0.90404521  0.53631360  0.87093687     0.36200
C114        C  0.89528829  0.59239108  0.93949357     0.36200
C115        C  0.93593794  0.35245837  0.87107009    -0.21300
C116        C  0.91600155  0.39057507  0.83907938    -0.21300
C117        C  0.91166181  0.56956501  0.12087806    -0.21300
C118        C  0.89781165  0.60872758  0.08795559    -0.21300
C119        C  0.03981692  0.37584193  0.03182863    -0.22300
C120        C  0.02837115  0.40689237  0.07790390    -0.22300
C121        C  0.89837425  0.58605314  0.85107175    -0.22300
C122        C  0.89302129  0.62163080  0.89465223    -0.22300
C123        C  0.98733712  0.35652773  0.95287279    -0.17700
C124        C  0.91797834  0.48900749  0.83990003    -0.17700
C125        C  0.90468763  0.61438301  0.99101455    -0.17700
C126        C  0.96348390  0.48255225  0.10409625    -0.17700
H127        H  0.93439119  0.30971334  0.86430061     0.15200
H128        H  0.89534471  0.38337522  0.80306908     0.15200
H129        H  0.91358627  0.57601155  0.16336520     0.15200
H130        H  0.88792591  0.65029888  0.09992386     0.15200
H131        H  0.07286171  0.34671443  0.02558013     0.13500
H132        H  0.05148233  0.40684302  0.11291818     0.13500
H133        H  0.90087025  0.59580146  0.80969218     0.13500
H134        H  0.89021269  0.66428415  0.89341045     0.13500
H135        H  0.97056318  0.46282229  0.92919457     0.26800
H136        H  0.93196381  0.50994007  0.00420496     0.26800
N137        N  0.54645002  0.94056313  0.09683806    -0.36000
N138        N  0.42941379  0.93666075  0.08942554    -0.56500
N139        N  0.39889674  0.07072580  0.07306734    -0.36000
N140        N  0.53842803  0.05502957  0.12239690    -0.56500
C141        C  0.54343827  0.88838350  0.08075456     0.27600
C142        C  0.59902103  0.95113607  0.09410354     0.27600
C143        C  0.37028514  0.03754704  0.10220031     0.27600
C144        C  0.43026681  0.09558216  0.10742152     0.27600
C145        C  0.44339760  0.88462046  0.07789762     0.36200
C146        C  0.37628413  0.94215479  0.08281198     0.36200
C147        C  0.59200695  0.05042223  0.11446279     0.36200
C148        C  0.52375792  0.10674360  0.11775165     0.36200
C149        C  0.59446295  0.86485197  0.07115019    -0.21300
C150        C  0.62925139  0.90424024  0.07961310    -0.21300
C151        C  0.38016308  0.04470143  0.15544525    -0.21300
C152        C  0.41835015  0.08138805  0.15894994    -0.21300
C153        C  0.39804128  0.85722661  0.06756985    -0.22300
C154        C  0.35566329  0.89379347  0.06993318    -0.22300
C155        C  0.61201538  0.10059817  0.11188902    -0.22300
C156        C  0.56851815  0.13611315  0.11494132    -0.22300
C157        C  0.49652941  0.86225073  0.06871889    -0.17700
C158        C  0.62098657  0.00231363  0.09715797    -0.17700
C159        C  0.47687151  0.12035447  0.09235721    -0.17700
C160        C  0.34891847  0.99151959  0.08037212    -0.17700
H161        H  0.60554826  0.82405728  0.05697504     0.15200
H162        H  0.67207872  0.89941968  0.07350827     0.15200
H163        H  0.36325776  0.02369229  0.18778217     0.15200
H164        H  0.43816451  0.09328028  0.19455550     0.15200
H165        H  0.39601036  0.81553950  0.05660059     0.13500
H166        H  0.31500353  0.88614646  0.06094568     0.13500
H167        H  0.65284453  0.11026146  0.10239696     0.13500
H168        H  0.56878933  0.17784502  0.10874379     0.13500
H169        H  0.51435149  0.96781354  0.10519026     0.26800
H170        H  0.40268726  0.07015812  0.03149557     0.26800
Zn171      Zn  0.69809452  0.74136836  0.79988022     1.49700
Zn172      Zn  0.79611552  0.71301155  0.70932250     1.49400
Zn173      Zn  0.70769535  0.80742705  0.69441620     1.49100
Zn174      Zn  0.79171226  0.82507708  0.77777569     1.49500
O175        O  0.74866808  0.77081960  0.74565953    -1.83500
O176        O  0.70497173  0.66117016  0.79016383    -0.74100
O177        O  0.79897476  0.72628958  0.62971558    -0.73900
O178        O  0.63356887  0.78580282  0.70084036    -0.73500
O179        O  0.76243542  0.63925764  0.72013561    -0.74100
O180        O  0.61841987  0.75304136  0.78018468    -0.73700
O181        O  0.73566387  0.78874186  0.61721649    -0.74300
O182        O  0.77837470  0.90237704  0.75387630    -0.73700
O183        O  0.87366901  0.71919515  0.73668506    -0.74500
O184        O  0.70979918  0.88726715  0.70447459    -0.73900
O185        O  0.87084216  0.80473387  0.76627494    -0.74300
O186        O  0.77481464  0.82256640  0.85617729    -0.74200
O187        O  0.71299778  0.76644509  0.87871691    -0.74000
C188        C  0.72591130  0.62693799  0.75438127     0.77800
C189        C  0.77420345  0.75665073  0.59908000     0.78300
C190        C  0.60268136  0.76508192  0.73468230     0.77200
C191        C  0.74279571  0.91905213  0.72372427     0.77600
C192        C  0.89671052  0.76004097  0.75584779     0.78700
C193        C  0.74643414  0.80092893  0.89183447     0.77800
Zn194      Zn  0.30096219  0.80856831  0.78853913     1.49700
Zn195      Zn  0.29322436  0.69779473  0.71760201     1.49400
Zn196      Zn  0.21047679  0.72819731  0.81180406     1.49100
Zn197      Zn  0.20323096  0.79165546  0.70712245     1.49500
O198        O  0.25261760  0.75769011  0.75555744    -1.83500
O199        O  0.37857931  0.79248032  0.75372421    -0.74100
O200        O  0.27565145  0.62288570  0.74255878    -0.73900
O201        O  0.23737189  0.74101234  0.88683658    -0.73500
O202        O  0.37078373  0.70810919  0.72350766    -0.74100
O203        O  0.30679584  0.78906880  0.86702137    -0.73700
O204        O  0.21006685  0.64925755  0.80246986    -0.74300
O205        O  0.12135845  0.77714501  0.72680026    -0.73700
O206        O  0.28256633  0.70168596  0.63945394    -0.74500
O207        O  0.13569107  0.75051832  0.80721897    -0.73900
O208        O  0.22553063  0.77003911  0.62768416    -0.74300
O209        O  0.20903451  0.87055379  0.72128118    -0.74200
O210        O  0.26824095  0.88782055  0.78220961    -0.74000
C211        C  0.39922459  0.74778115  0.73252958     0.77800
C212        C  0.24000940  0.61223847  0.77805186     0.78300
C213        C  0.28012951  0.76214025  0.89997032     0.77200
C214        C  0.10340858  0.76419465  0.77278524     0.77600
C215        C  0.25688868  0.73089092  0.60879201     0.78700
C216        C  0.23094867  0.90353563  0.75281795     0.77800
Zn217      Zn  0.77050569  0.32274038  0.70102793     1.49700
Zn218      Zn  0.69364914  0.23090266  0.69018632     1.49400
Zn219      Zn  0.78386224  0.22393200  0.78219605     1.49100
Zn220      Zn  0.67860668  0.31221892  0.79039990     1.49500
O221        O  0.73252343  0.27192649  0.74220028    -1.83500
O222        O  0.75634399  0.31662416  0.62095204    -0.74100
O223        O  0.71917489  0.15645971  0.69248001    -0.73900
O224        O  0.86542034  0.24643539  0.77034760    -0.73500
O225        O  0.69851680  0.25336612  0.61355702    -0.74100
O226        O  0.84628975  0.30773749  0.71403176    -0.73700
O227        O  0.77716681  0.14329280  0.75455130    -0.74300
O228        O  0.69213583  0.29329742  0.86541904    -0.73700
O229        O  0.61631067  0.22913313  0.71195883    -0.74500
O230        O  0.75775043  0.22947381  0.86355680    -0.73900
O231        O  0.60147251  0.28774540  0.78137639    -0.74300
O232        O  0.68077423  0.39218536  0.78027282    -0.74200
O233        O  0.75077720  0.40198750  0.72432943    -0.74000
C234        C  0.72485439  0.28966167  0.59318525     0.77800
C235        C  0.74900141  0.12530393  0.71716461     0.78300
C236        C  0.88075431  0.28206525  0.73921234     0.77200
C237        C  0.71986198  0.25872869  0.88879138     0.77600
C238        C  0.58518634  0.25173371  0.74917506     0.78700
C239        C  0.71050841  0.42203210  0.75335771     0.77800
Zn240      Zn  0.20471716  0.31379072  0.72435710     1.49700
Zn241      Zn  0.17599448  0.22617768  0.80926985     1.49400
Zn242      Zn  0.27254685  0.20057127  0.71868167     1.49100
Zn243      Zn  0.28242893  0.29105945  0.81716628     1.49500
O244        O  0.23440994  0.25731088  0.76715210    -1.83500
O245        O  0.12560190  0.31465544  0.73953229    -0.74100
O246        O  0.17902722  0.14774414  0.79120003    -0.73900
O247        O  0.24708371  0.20939119  0.64093998    -0.73500
O248        O  0.09857810  0.25368782  0.79286014    -0.74100
O249        O  0.21041794  0.29224193  0.64402269    -0.73700
O250        O  0.25085961  0.12392913  0.73781191    -0.74300
O251        O  0.35979929  0.26908392  0.79565772    -0.73700
O252        O  0.19280397  0.22955087  0.88809964    -0.74500
O253        O  0.35389118  0.20613003  0.72967904    -0.73900
O254        O  0.26909205  0.26961885  0.89533437    -0.74300
O255        O  0.27310370  0.37047098  0.81458884    -0.74200
O256        O  0.22759071  0.39104725  0.74504696    -0.74000
C257        C  0.08772597  0.29165286  0.76325252     0.77800
C258        C  0.20933566  0.11164863  0.76542958     0.78300
C259        C  0.22242949  0.24725041  0.61861342     0.77200
C260        C  0.38153710  0.23346615  0.76191427     0.77600
C261        C  0.23127809  0.24398974  0.91590444     0.78700
C262        C  0.25257196  0.40540208  0.78600283     0.77800
Zn263      Zn  0.72901124  0.82895929  0.21601365     1.49700
Zn264      Zn  0.72307090  0.72414482  0.29128548     1.49400
Zn265      Zn  0.80943196  0.73226140  0.18327151     1.49100
Zn266      Zn  0.82296744  0.80723564  0.28464967     1.49500
O267        O  0.77028162  0.77120074  0.24474139    -1.83500
O268        O  0.65570059  0.81286437  0.23055419    -0.74100
O269        O  0.73866918  0.64195894  0.26216929    -0.73900
O270        O  0.79229098  0.75763015  0.10738370    -0.73500
O271        O  0.63916967  0.74604946  0.28111187    -0.74100
O272        O  0.74020068  0.82841632  0.13613528    -0.73700
O273        O  0.79066508  0.65713472  0.19071761    -0.74300
O274        O  0.90111340  0.78167891  0.26482304    -0.73700
O275        O  0.74549744  0.73595670  0.37362238    -0.74500
O276        O  0.88999121  0.73082862  0.19158595    -0.73900
O277        O  0.80902608  0.79281017  0.35983018    -0.74300
O278        O  0.81697744  0.88548616  0.27839272    -0.74200
O279        O  0.74076616  0.90641750  0.24373578    -0.74000
C280        C  0.62241218  0.78424677  0.25347611     0.77800
C281        C  0.76610186  0.62465422  0.21911202     0.78300
C282        C  0.76469704  0.79971726  0.09786354     0.77200
C283        C  0.92026345  0.74963642  0.22647314     0.77600
C284        C  0.78221708  0.76524836  0.39135633     0.78700
C285        C  0.78397797  0.92042631  0.26288743     0.77800
Zn286      Zn  0.23927143  0.69769098  0.20673878     1.49700
Zn287      Zn  0.29882057  0.80422428  0.20836970     1.49400
Zn288      Zn  0.21565592  0.79016986  0.30541934     1.49100
Zn289      Zn  0.32673211  0.71354931  0.29294229     1.49500
O290        O  0.26995033  0.75125607  0.25442452    -1.83500
O291        O  0.26131596  0.70579519  0.12755026    -0.74100
O292        O  0.27841315  0.88359728  0.23289399    -0.73900
O293        O  0.13842771  0.77436548  0.28374681    -0.73500
O294        O  0.28905144  0.78825599  0.12898561    -0.74100
O295        O  0.16101754  0.71174233  0.21834502    -0.73700
O296        O  0.22877818  0.87074578  0.30666423    -0.74300
O297        O  0.30541288  0.71902628  0.37384154    -0.73700
O298        O  0.37748856  0.79498247  0.21577708    -0.74500
O299        O  0.22539508  0.76297812  0.38135517    -0.73900
O300        O  0.40349195  0.73867695  0.27462219    -0.74300
O301        O  0.32773283  0.63364798  0.27287800    -0.74200
O302        O  0.25862929  0.61881503  0.22392616    -0.74000
C303        C  0.27904058  0.74495437  0.10328582     0.77800
C304        C  0.25359629  0.90194622  0.27649770     0.78300
C305        C  0.12564847  0.73942460  0.24818134     0.77200
C306        C  0.26287694  0.73597113  0.40177762     0.77600
C307        C  0.41468660  0.77241671  0.24030106     0.78700
C308        C  0.29814048  0.60128478  0.24888418     0.77800
Zn309      Zn  0.69817137  0.21378421  0.21360829     1.49700
Zn310      Zn  0.78435077  0.29530819  0.18315274     1.49400
Zn311      Zn  0.69701516  0.33005668  0.27340187     1.49100
Zn312      Zn  0.79224057  0.24214154  0.29609560     1.49500
O313        O  0.74301496  0.26988331  0.24182376    -1.83500
O314        O  0.69401674  0.21958655  0.13239290    -0.74100
O315        O  0.78108230  0.37611780  0.18921373    -0.73900
O316        O  0.61857537  0.31750383  0.26142275    -0.73500
O317        O  0.75611441  0.27414101  0.10788755    -0.74100
O318        O  0.62160216  0.22890188  0.24768370    -0.73700
O319        O  0.71800309  0.40607568  0.25065177    -0.74300
O320        O  0.76438575  0.26644974  0.37402093    -0.73700
O321        O  0.85992905  0.26843873  0.19343262    -0.74500
O322        O  0.70092915  0.32447495  0.35234649    -0.73900
O323        O  0.87479008  0.25067776  0.27653966    -0.74300
O324        O  0.78997096  0.16307966  0.28977574    -0.74200
O325        O  0.73128181  0.13910727  0.23084622    -0.74000
C326        C  0.71783358  0.24495270  0.09610204     0.77800
C327        C  0.75358736  0.41508391  0.21426161     0.78300
C328        C  0.59577645  0.27326335  0.26189739     0.77200
C329        C  0.72528227  0.30008095  0.38768624     0.77600
C330        C  0.89230680  0.25483801  0.22817454     0.78700
C331        C  0.76826956  0.12724257  0.26185087     0.77800
N332        N  0.07862867  0.91253045  0.42692877    -0.36000
N333        N  0.96220817  0.90529667  0.42678257    -0.56500
N334        N  0.95114982  0.89959230  0.54208235    -0.36000
N335        N  0.06650971  0.91286396  0.54374080    -0.56500
C336        C  0.06993497  0.92800793  0.37728903     0.27600
C337        C  0.12528317  0.93275712  0.44038536     0.27600
C338        C  0.89916593  0.90736929  0.53192994     0.27600
C339        C  0.95458278  0.91074214  0.59507384     0.27600
C340        C  0.97473708  0.90568900  0.37398241     0.36200
C341        C  0.90875707  0.90179333  0.43271158     0.36200
C342        C  0.11991050  0.91783146  0.53792582     0.36200
C343        C  0.05423481  0.91048414  0.59656407     0.36200
C344        C  0.11357929  0.95296032  0.35698781    -0.21300
C345        C  0.14786113  0.95644912  0.39680747    -0.21300
C346        C  0.86912385  0.91698339  0.57988158    -0.21300
C347        C  0.90388667  0.91928652  0.61972378    -0.21300
C348        C  0.92913249  0.89905317  0.34627832    -0.22300
C349        C  0.88716762  0.89760135  0.38357842    -0.22300
C350        C  0.14207806  0.91661417  0.58692386    -0.22300
C351        C  0.10062021  0.91187554  0.62395406    -0.22300
C352        C  0.02106512  0.92826577  0.35266269    -0.17700
C353        C  0.14666715  0.93466696  0.49160154    -0.17700
C354        C  0.00191319  0.91837039  0.62140570    -0.17700
C355        C  0.87861202  0.91365897  0.48111234    -0.17700
H356        H  0.11824331  0.97097532  0.31910938     0.15200
H357        H  0.18293327  0.97860719  0.39498820     0.15200
H358        H  0.82663304  0.92352825  0.58547735     0.15200
H359        H  0.89318563  0.92884602  0.66171009     0.15200
H360        H  0.92610403  0.89902150  0.30372882     0.13500
H361        H  0.84526044  0.89679610  0.37597409     0.13500
H362        H  0.18325973  0.92211044  0.59551668     0.13500
H363        H  0.10401876  0.91250226  0.66656325     0.13500
H364        H  0.05329844  0.89109117  0.45085067     0.26800
H365        H  0.98303834  0.88983223  0.51409228     0.26800
C366        C  0.26503871  0.05560482  0.29911129     0.03800
C367        C  0.27812012  0.05656242  0.35302724    -0.12400
C368        C  0.28260232  0.00963866  0.38032968     0.01300
C369        C  0.27666197  0.96092975  0.35149227    -0.10900
C370        C  0.26154723  0.95765920  0.29876646     0.03800
C371        C  0.25622504  0.00562683  0.27171615    -0.10300
H372        H  0.28182348  0.09463397  0.37475920     0.09300
H373        H  0.27875303  0.92438040  0.37175649     0.06900
H374        H  0.24464379  0.00427662  0.23087321     0.06700
Zn375      Zn  0.18780538  0.21444894  0.29582508     1.49700
Zn376      Zn  0.27719223  0.29424138  0.32800846     1.49400
Zn377      Zn  0.30328984  0.20912238  0.23037855     1.49100
Zn378      Zn  0.21407121  0.30769524  0.21719424     1.49500
O379        O  0.24531431  0.25675998  0.26731902    -1.83500
O380        O  0.18116240  0.22911920  0.37638973    -0.74100
O381        O  0.35657876  0.27388921  0.32754137    -0.73900
O382        O  0.29455631  0.13179204  0.25435737    -0.73500
O383        O  0.24590363  0.27902176  0.40319013    -0.74100
O384        O  0.21089115  0.13453966  0.28974055    -0.73700
O385        O  0.38046930  0.22895622  0.25036021    -0.74300
O386        O  0.23883271  0.28419463  0.13847804    -0.73700
O387        O  0.27424856  0.37284898  0.31494762    -0.74500
O388        O  0.29159392  0.21235639  0.15026197    -0.73900
O389        O  0.23852088  0.38469592  0.23680818    -0.74300
O390        O  0.13163315  0.30030963  0.21415980    -0.74200
O391        O  0.11503898  0.22996273  0.26091342    -0.74000
C392        C  0.20618753  0.25120398  0.41404065     0.77800
C393        C  0.39289564  0.25171656  0.29459322     0.78300
C394        C  0.25561660  0.10896113  0.27701527     0.77200
C395        C  0.26547986  0.24187695  0.11963558     0.77600
C396        C  0.26342112  0.40233266  0.27687003     0.78700
C397        C  0.09963501  0.26535121  0.22967235     0.77800
C398        C  0.04625364  0.26165165  0.20501814     0.03800
C399        C  0.99665768  0.25580193  0.23493530    -0.12400
C400        C  0.94998317  0.24430932  0.20749261     0.01300
C401        C  0.95656200  0.23144666  0.15229067    -0.10900
C402        C  0.99922758  0.24981258  0.12211701     0.03800
C403        C  0.04529549  0.26298731  0.14861689    -0.10300
H404        H  0.99421413  0.26199193  0.27802375     0.09300
H405        H  0.92337175  0.21651500  0.13133119     0.06900
H406        H  0.08042137  0.27379146  0.12547725     0.06700
C407        C  0.25790351  0.21942875  0.06386442     0.03800
C408        C  0.25313352  0.16430154  0.05976558    -0.12400
C409        C  0.23733270  0.13742831  0.01368758     0.01300
C410        C  0.22903151  0.16554041  0.96870748    -0.10900
C411        C  0.23590842  0.22072415  0.96904678     0.03800
C412        C  0.24954703  0.24840375  0.01756537    -0.10300
H413        H  0.26097193  0.14136681  0.09381551     0.09300
H414        H  0.21930424  0.14362191  0.93235206     0.06900
H415        H  0.25348233  0.29106644  0.01918163     0.06700
C416        C  0.44965478  0.25451834  0.31010790     0.03800
C417        C  0.49420870  0.26009292  0.27360842    -0.12400
C418        C  0.54409855  0.27274669  0.29358121     0.01300
C419        C  0.54824642  0.28094678  0.34868007    -0.10900
C420        C  0.50784805  0.26718634  0.38507630     0.03800
C421        C  0.45846455  0.25450951  0.36507730    -0.10300
H422        H  0.48981675  0.25645532  0.23096304     0.09300
H423        H  0.58583218  0.29325308  0.36313772     0.06900
H424        H  0.42661444  0.24301886  0.39206910     0.06700
C425        C  0.79577932  0.07326800  0.25912449     0.03800
C426        C  0.77079332  0.02428148  0.26564618    -0.12400
C427        C  0.80266624  0.97554467  0.26002160     0.01300
C428        C  0.85763943  0.97738463  0.24801829    -0.10900
C429        C  0.88294956  0.02496473  0.24562777     0.03800
C430        C  0.85185898  0.07260146  0.25048897    -0.10300
H431        H  0.72807993  0.02409906  0.27389271     0.09300
H432        H  0.88195049  0.94059111  0.24220856     0.06900
H433        H  0.87187313  0.10964929  0.24827255     0.06700
C434        C  0.69562693  0.24348791  0.04138877     0.03800
C435        C  0.64043264  0.23723612  0.04044863    -0.12400
C436        C  0.61509624  0.23004397  0.99277648     0.01300
C437        C  0.64375482  0.23507403  0.94469465    -0.10900
C438        C  0.69788724  0.24681245  0.94300521     0.03800
C439        C  0.72498200  0.24880230  0.99156434    -0.10300
H440        H  0.61695333  0.23678862  0.07764278     0.09300
H441        H  0.62338815  0.22984176  0.90796255     0.06900
H442        H  0.76738364  0.25455492  0.99055386     0.06700
C443        C  0.76860334  0.56744502  0.19588075     0.03800
C444        C  0.78346564  0.56152306  0.14070348    -0.12400
C445        C  0.78190826  0.51368891  0.11092320     0.01300
C446        C  0.77127385  0.46812776  0.13775893    -0.10900
C447        C  0.76061612  0.46942378  0.19331964     0.03800
C448        C  0.75685710  0.52036142  0.22283465    -0.10300
H449        H  0.79417090  0.59543201  0.11918900     0.09300
H450        H  0.76901189  0.43071487  0.11447715     0.06900
H451        H  0.74662019  0.52313343  0.26532976     0.06700
C452        C  0.70729080  0.31481059  0.44494877     0.03800
C453        C  0.67412364  0.36167392  0.45422590    -0.12400
C454        C  0.66823661  0.38901543  0.50463525     0.01300
C455        C  0.67856822  0.35912669  0.54831841    -0.10900
C456        C  0.70868737  0.31051685  0.54217428     0.03800
C457        C  0.72496915  0.28859482  0.48986844    -0.10300
H458        H  0.65981617  0.38157881  0.42059307     0.09300
H459        H  0.66744955  0.37552919  0.58818756     0.06900
H460        H  0.75116482  0.25289586  0.48436916     0.06700
C461        C  0.31258493  0.54281655  0.25069831     0.03800
C462        C  0.36759598  0.52731090  0.24786012    -0.12400
C463        C  0.38531819  0.47623921  0.26077939     0.01300
C464        C  0.34820789  0.44326502  0.28179212    -0.10900
C465        C  0.29369894  0.45181303  0.27414625     0.03800
C466        C  0.27504980  0.50279800  0.25891889    -0.10300
H467        H  0.39660036  0.55515192  0.23533907     0.09300
H468        H  0.36288735  0.40700583  0.29813400     0.06900
H469        H  0.23268357  0.51182285  0.25633068     0.06700
C470        C  0.07081937  0.72057542  0.24544952     0.03800
C471        C  0.02252134  0.75153039  0.23949527    -0.12400
C472        C  0.97542839  0.72469741  0.22759183     0.01300
C473        C  0.97890920  0.66891625  0.22005874    -0.10900
C474        C  0.02574717  0.63913667  0.22805371     0.03800
C475        C  0.06967520  0.66489572  0.24428546    -0.10300
H476        H  0.02181274  0.79464976  0.24297366     0.09300
H477        H  0.94420199  0.64809045  0.20896477     0.06900
H478        H  0.10490799  0.64092915  0.25272355     0.06700
C479        C  0.30137394  0.73618074  0.04718992     0.03800
C480        C  0.27482577  0.75029189  0.00142511    -0.12400
C481        C  0.30398973  0.74909546  0.95113163     0.01300
C482        C  0.35889248  0.73371400  0.94802394    -0.10900
C483        C  0.38639939  0.72210136  0.99356167     0.03800
C484        C  0.35587778  0.72079110  0.04204715    -0.10300
H485        H  0.23294252  0.76345297  0.00513766     0.09300
H486        H  0.38043771  0.73203952  0.90937047     0.06900
H487        H  0.37538846  0.71418976  0.07834828     0.06700
C488        C  0.46945373  0.79299303  0.23144764     0.03800
C489        C  0.46962876  0.84265289  0.20861532    -0.12400
C490        C  0.50955986  0.87724998  0.21766557     0.01300
C491        C  0.55788533  0.85527675  0.23304548    -0.10900
C492        C  0.56491536  0.80169803  0.24622185     0.03800
C493        C  0.51858408  0.77111261  0.24945905    -0.10300
H494        H  0.43497844  0.85804546  0.19044497     0.09300
H495        H  0.59034883  0.88143788  0.23786296     0.06900
H496        H  0.52078432  0.73170868  0.26436776     0.06700
C497        C  0.25264254  0.71349564  0.45485416     0.03800
C498        C  0.23398731  0.66175326  0.45316429    -0.12400
C499        C  0.22764101  0.63437661  0.49965006     0.01300
C500        C  0.24339261  0.65678944  0.54720013    -0.10900
C501        C  0.25550196  0.71020145  0.55238303     0.03800
C502        C  0.26084676  0.73942576  0.50566928    -0.10300
H503        H  0.22394914  0.64273401  0.41541661     0.09300
H504        H  0.24196668  0.63310703  0.58178176     0.06900
H505        H  0.27209942  0.78039606  0.50862653     0.06700
C506        C  0.75091084  0.82329191  0.94787745     0.03800
C507        C  0.75340536  0.79457363  0.99495803    -0.12400
C508        C  0.76537942  0.82205985  0.04384376     0.01300
C509        C  0.77427475  0.87682976  0.04401104    -0.10900
C510        C  0.76807037  0.90626600  0.99871604     0.03800
C511        C  0.75864452  0.87809278  0.95137309    -0.10300
H512        H  0.74704581  0.75231713  0.99346153     0.09300
H513        H  0.78243744  0.89714056  0.08162718     0.06900
H514        H  0.75687604  0.89923261  0.91575276     0.06700
C515        C  0.18729336  0.24236363  0.47052020     0.03800
C516        C  0.13584475  0.22394964  0.47733524    -0.12400
C517        C  0.11270399  0.21140691  0.52695411     0.01300
C518        C  0.14479261  0.21651832  0.57118082    -0.10900
C519        C  0.19658635  0.23601043  0.56695152     0.03800
C520        C  0.21772139  0.24962055  0.51615413    -0.10300
H521        H  0.11253580  0.22202084  0.44267330     0.09300
H522        H  0.12993914  0.20693469  0.61010315     0.06900
H523        H  0.25707724  0.26516037  0.51223685     0.06700
C524        C  0.03175608  0.31109176  0.75241136     0.03800
C525        C  0.98397644  0.28233815  0.75767127    -0.12400
C526        C  0.93730329  0.30066701  0.73246926     0.01300
C527        C  0.94201754  0.34466228  0.70056319    -0.10900
C528        C  0.98377856  0.37867414  0.70389168     0.03800
C529        C  0.02877585  0.36043307  0.72891645    -0.10300
H530        H  0.98366234  0.24629694  0.77896776     0.09300
H531        H  0.90977448  0.35646850  0.67678217     0.06900
H532        H  0.06282845  0.38495115  0.72963672     0.06700
C533        C  0.19103264  0.05590821  0.76556526     0.03800
C534        C  0.13499106  0.05146012  0.76864929    -0.12400
C535        C  0.11220318  0.00200748  0.76601205     0.01300
C536        C  0.14652130  0.95634793  0.76325451    -0.10900
C537        C  0.20243824  0.95780336  0.76078125     0.03800
C538        C  0.22530296  0.00842738  0.76157369    -0.10300
H539        H  0.10864341  0.08707744  0.77054028     0.09300
H540        H  0.12948405  0.91798234  0.75925819     0.06900
H541        H  0.26828291  0.01087588  0.75836392     0.06700
C542        C  0.43827074  0.21618971  0.76731894     0.03800
C543        C  0.48242940  0.24778986  0.75725562    -0.12400
C544        C  0.53476403  0.22540032  0.76144382     0.01300
C545        C  0.54172242  0.17180342  0.77307153    -0.10900
C546        C  0.49862219  0.14050025  0.78556750     0.03800
C547        C  0.44702010  0.16504666  0.78521169    -0.10300
H548        H  0.47625255  0.28767779  0.74435272     0.09300
H549        H  0.58187623  0.15425258  0.76961986     0.06900
H550        H  0.41224077  0.14405201  0.79692772     0.06700
C551        C  0.24085253  0.56005800  0.80271267     0.03800
C552        C  0.24413858  0.56491833  0.85829534    -0.12400
C553        C  0.26247305  0.52238335  0.88547370     0.01300
C554        C  0.26625922  0.47158972  0.85982951    -0.10900
C555        C  0.25462841  0.46275844  0.80596079     0.03800
C556        C  0.24487282  0.50820443  0.77591569    -0.10300
H557        H  0.23822859  0.60348803  0.87999832     0.09300
H558        H  0.27841242  0.43859432  0.88277222     0.06900
H559        H  0.24022888  0.50342438  0.73338086     0.06700
C560        C  0.75184140  0.06858657  0.69571250     0.03800
C561        C  0.74951032  0.06217519  0.63985702    -0.12400
C562        C  0.74616690  0.01249860  0.61339229     0.01300
C563        C  0.74258570  0.96829260  0.64394217    -0.10900
C564        C  0.74506576  0.97178554  0.69959582     0.03800
C565        C  0.75095320  0.02262462  0.72622638    -0.10300
H566        H  0.75074814  0.09673629  0.61628064     0.09300
H567        H  0.74132013  0.92923692  0.62368318     0.06900
H568        H  0.75216987  0.02660392  0.76925938     0.06700
C569        C  0.04515964  0.76306222  0.79080529     0.03800
C570        C  0.03535935  0.75890805  0.84631630    -0.12400
C571        C  0.98539750  0.74951849  0.86876214     0.01300
C572        C  0.94256852  0.74707194  0.83600001    -0.10900
C573        C  0.94864704  0.75403545  0.78125596     0.03800
C574        C  0.00065688  0.76219708  0.75779585    -0.10300
H575        H  0.06739534  0.76122154  0.87327866     0.09300
H576        H  0.90324435  0.74030030  0.85338140     0.06900
H577        H  0.00625677  0.76749039  0.71547755     0.06700
C578        C  0.45570999  0.74086660  0.71074744     0.03800
C579        C  0.50025495  0.75800175  0.73797388    -0.12400
C580        C  0.55223814  0.74643013  0.71384851     0.01300
C581        C  0.55845183  0.71937143  0.66301068    -0.10900
C582        C  0.51492662  0.70808404  0.63262470     0.03800
C583        C  0.46393531  0.71536166  0.65902649    -0.10300
H584        H  0.49467449  0.77918673  0.77690067     0.09300
H585        H  0.59842879  0.71258073  0.64508676     0.06900
H586        H  0.42939056  0.70408705  0.63812856     0.06700
C587        C  0.69825121  0.57592714  0.74828816     0.03800
C588        C  0.64210737  0.58164722  0.74524775    -0.12400
C589        C  0.61010340  0.53768639  0.74472465     0.01300
C590        C  0.63636924  0.48682196  0.74376348    -0.10900
C591        C  0.69125888  0.47900734  0.74952395     0.03800
C592        C  0.72317569  0.52402496  0.75007593    -0.10300
H593        H  0.62359732  0.62112221  0.74389846     0.09300
H594        H  0.61317026  0.45185185  0.74289505     0.06900
H595        H  0.76578697  0.51909432  0.75396199     0.06700
C596        C  0.80250056  0.76499061  0.44692792     0.03800
C597        C  0.85794271  0.77170651  0.44916094    -0.12400
C598        C  0.88489696  0.77098121  0.49671613     0.01300
C599        C  0.85353459  0.76988269  0.54392136    -0.10900
C600        C  0.79884410  0.76163504  0.54462126     0.03800
C601        C  0.77242600  0.75914672  0.49578410    -0.10300
H602        H  0.88095422  0.77482342  0.41207645     0.09300
H603        H  0.87184256  0.77371092  0.58144316     0.06900
H604        H  0.73000203  0.75336702  0.49597771     0.06700
C605        C  0.00823919  0.95167468  0.25934628    -0.05100
C606        C  0.01185078  0.96878782  0.31297863     0.00800
C607        C  0.99265927  0.02141417  0.33079764    -0.07800
C608        C  0.95663496  0.04792241  0.29960016    -0.05200
C609        C  0.94137323  0.02322700  0.25184988     0.00800
C610        C  0.97454848  0.98020169  0.22734494    -0.07700
C611        C  0.97121808  0.96091124  0.16958429     0.59100
H612        H  0.02687090  0.91344809  0.24428036     0.13400
H613        H  0.93494281  0.08418300  0.31585722     0.13400
C614        C  0.00937805  0.04943048  0.38209303     0.62900
F615        F  0.02032678  0.96555819  0.14280355    -0.22300
F616        F  0.93313344  0.99061696  0.14480946    -0.19600
F617        F  0.95871060  0.90797506  0.16614708    -0.19300
F618        F  0.97734781  0.09505574  0.39662107    -0.19300
F619        F  0.06137712  0.06410352  0.37404686    -0.19600
F620        F  0.00653684  0.01702674  0.42430292    -0.22300
C621        C  0.24610210  0.93693194  0.48791275    -0.05100
C622        C  0.19609875  0.96463499  0.49724730     0.00800
C623        C  0.19359976  0.02086886  0.49402730    -0.07800
C624        C  0.23512178  0.04364618  0.46480322    -0.05200
C625        C  0.27771632  0.01078683  0.44036265     0.00800
C626        C  0.28931944  0.96286882  0.46506287    -0.07700
C627        C  0.34503224  0.93703641  0.46205417     0.62700
H628        H  0.25060879  0.89505041  0.49537333     0.13400
H629        H  0.22874895  0.08411786  0.45324844     0.13400
C630        C  0.14566912  0.05668371  0.51454767     0.62900
F631        F  0.35600223  0.92079854  0.51194860    -0.22300
F632        F  0.38230019  0.97292189  0.44731905    -0.19600
F633        F  0.34956586  0.89314678  0.42586260    -0.19300
F634        F  0.12026326  0.07645106  0.47202798    -0.19300
F635        F  0.16293172  0.09867367  0.54585308    -0.19600
F636        F  0.10942997  0.03065777  0.54549970    -0.22300
C637        C  0.77927337  0.92894821  0.49114981    -0.05100
C638        C  0.82945387  0.94955968  0.48085515     0.00800
C639        C  0.83458990  0.00489870  0.49218117    -0.07800
C640        C  0.79896599  0.03150016  0.53109450    -0.05200
C641        C  0.75676295  0.00462503  0.55420367     0.00800
C642        C  0.74087696  0.95833787  0.52578924    -0.07700
C643        C  0.68546058  0.93864093  0.53410685     0.62700
H644        H  0.77245046  0.88827271  0.47769812     0.13400
H645        H  0.80946040  0.06951989  0.54875616     0.13400
C646        C  0.88263833  0.03288334  0.47142425     0.62900
F647        F  0.66070452  0.93932787  0.48650925    -0.22300
F648        F  0.65486343  0.97114011  0.57189279    -0.19600
F649        F  0.68805816  0.88713947  0.55034622    -0.19300
F650        F  0.87408820  0.08777783  0.47814255    -0.19300
F651        F  0.89228095  0.01949709  0.41743322    -0.19600
F652        F  0.92677608  0.01802303  0.49846954    -0.22300
C653        C  0.00533387  0.92238330  0.72064786    -0.05100
C654        C  0.99776621  0.94899949  0.67417667     0.00800
C655        C  0.00292311  0.00478114  0.67571665    -0.07800
C656        C  0.03390351  0.02771000  0.71490487    -0.05200
C657        C  0.05479593  0.99625983  0.75393929     0.00800
C658        C  0.02991453  0.94802769  0.76317592    -0.07700
C659        C  0.03253842  0.92181392  0.81545226     0.62700
H660        H  0.99613208  0.88089141  0.72209995     0.13400
H661        H  0.04740858  0.06735920  0.71033435     0.13400
C662        C  0.97903398  0.03842540  0.63411384     0.62900
F663        F  0.98139107  0.91175584  0.83426324    -0.22300
F664        F  0.05496061  0.95425023  0.85357425    -0.19600
F665        F  0.06248293  0.87420751  0.80817012    -0.19300
F666        F  0.00283766  0.02398998  0.58398889    -0.19300
F667        F  0.98533705  0.09202698  0.64547361    -0.19600
F668        F  0.92478763  0.03147018  0.63360338    -0.22300
C669        C  0.46798027  0.76369769  0.96021254    -0.05100
C670        C  0.44616682  0.72696739  0.99411625     0.00800
C671        C  0.47283739  0.71984093  0.04170218    -0.07800
C672        C  0.49821885  0.76340065  0.06465051    -0.05200
C673        C  0.50221651  0.80999274  0.03721041     0.00800
C674        C  0.49376255  0.80736631  0.98180242    -0.07700
C675        C  0.50519872  0.85164523  0.94530903     0.62700
H676        H  0.45675501  0.76481611  0.91943801     0.13400
H677        H  0.50994915  0.76288429  0.10543449     0.13400
C678        C  0.47376423  0.66802628  0.06897336     0.62900
F679        F  0.53736820  0.83090058  0.90154035    -0.22300
F680        F  0.53102068  0.89271978  0.96980108    -0.19600
F681        F  0.45763035  0.87217294  0.92773899    -0.19300
F682        F  0.52615116  0.64824324  0.06966354    -0.19300
F683        F  0.44523126  0.63046222  0.04213349    -0.19600
F684        F  0.45251187  0.67621114  0.12107247    -0.22300
C685        C  0.25352667  0.01426161  0.07761694    -0.05100
C686        C  0.30156597  0.99780113  0.04896299     0.00800
C687        C  0.30807916  0.00838085  0.99456554    -0.07800
C688        C  0.27661411  0.05073403  0.97685559    -0.05200
C689        C  0.23796962  0.07855531  0.01224719     0.00800
C690        C  0.21980499  0.05370973  0.05849474    -0.07700
C691        C  0.16931927  0.07255832  0.09168367     0.62700
H692        H  0.24616638  0.00208863  0.11790022     0.13400
H693        H  0.28722686  0.06664302  0.93885694     0.13400
C694        C  0.34868865  0.97615002  0.95692883     0.62900
F695        F  0.18141190  0.08702527  0.14343407    -0.22300
F696        F  0.13503967  0.03131108  0.09275662    -0.19600
F697        F  0.14322413  0.11558732  0.07084963    -0.19300
F698        F  0.33628105  0.92318359  0.95530159    -0.19300
F699        F  0.39968805  0.98027182  0.97401300    -0.19600
F700        F  0.34811806  0.99288319  0.90554226    -0.22300
C701        C  0.67092987  0.00433626  0.01004129    -0.05100
C702        C  0.67259182  0.00603132  0.06574215     0.00800
C703        C  0.72313489  0.00399921  0.08780371    -0.07800
C704        C  0.76881793  0.99030379  0.05330567    -0.05200
C705        C  0.76110077  0.96636379  0.00293486     0.00800
C706        C  0.71716961  0.98898022  0.97784456    -0.07700
C707        C  0.71763504  0.99595164  0.91874964     0.62700
H708        H  0.63357274  0.01258388  0.99202984     0.13400
H709        H  0.80742971  0.98323120  0.06942134     0.13400
C710        C  0.72855006  0.00995267  0.14667141     0.62900
F711        F  0.70021880  0.04764889  0.91057317    -0.22300
F712        F  0.68366143  0.96104722  0.89544834    -0.19600
F713        F  0.76864867  0.98710009  0.89468517    -0.19300
F714        F  0.70513898  0.96824303  0.17037582    -0.19300
F715        F  0.70380015  0.05749178  0.16738936    -0.19600
F716        F  0.78188064  0.00961637  0.15742035    -0.22300
C717        C  0.55950118  0.15389695  0.97863692    -0.05100
C718        C  0.56151540  0.20814222  0.99388041     0.00800
C719        C  0.51691790  0.23484182  0.02261431    -0.07800
C720        C  0.47897189  0.20402524  0.04795779    -0.05200
C721        C  0.48366720  0.14805731  0.04186502     0.00800
C722        C  0.51880197  0.12375985  0.99986783    -0.07700
C723        C  0.51455811  0.06624321  0.97910306     0.62700
H724        H  0.59264366  0.13431001  0.95423684     0.13400
H725        H  0.45021086  0.22331743  0.07785096     0.13400
C726        C  0.51118580  0.29487573  0.03103578     0.62900
F727        F  0.46828523  0.06244246  0.95236255    -0.22300
F728        F  0.51328541  0.03213140  0.01990575    -0.19600
F729        F  0.55702585  0.04910609  0.94361917    -0.19300
F730        F  0.54595816  0.31948740  0.99691049    -0.19300
F731        F  0.52132122  0.30972108  0.08297726    -0.19600
F732        F  0.45961654  0.31237531  0.02161773    -0.22300
C733        C  0.90039541  0.47881734  0.74320439    -0.05100
C734        C  0.93563475  0.49121578  0.78294690     0.00800
C735        C  0.99071663  0.49497694  0.76729222    -0.07800
C736        C  0.00925436  0.47111580  0.71694452    -0.05200
C737        C  0.97566451  0.43640189  0.69101094     0.00800
C738        C  0.92197917  0.45680258  0.69336370    -0.07700
C739        C  0.88859468  0.45328774  0.64549825     0.62700
H740        H  0.85758439  0.48359189  0.75162786     0.13400
H741        H  0.05146748  0.46890077  0.70492359     0.13400
C742        C  0.02903591  0.52204362  0.80331805     0.62900
F743        F  0.87582885  0.50418239  0.63079893    -0.22300
F744        F  0.84188948  0.42856911  0.65756263    -0.19600
F745        F  0.91648694  0.42491664  0.60279561    -0.19300
F746        F  0.08030052  0.52050755  0.77948354    -0.19300
F747        F  0.03132584  0.49732855  0.85069870    -0.19600
F748        F  0.01200575  0.57490533  0.81417442    -0.22300
C749        C  0.93650295  0.29211849  0.99451277    -0.05100
C750        C  0.98249765  0.29915627  0.96310643     0.00800
C751        C  0.02881605  0.26867884  0.97379410    -0.07800
C752        C  0.03278715  0.24881643  0.02494799    -0.05200
C753        C  0.99123835  0.26096560  0.06488732     0.00800
C754        C  0.94208809  0.28501678  0.04873055    -0.07700
C755        C  0.89862338  0.31268330  0.08645080     0.62700
H756        H  0.89938144  0.31019730  0.98235425     0.13400
H757        H  0.06963457  0.22835694  0.03469391     0.13400
C758        C  0.07557382  0.26338227  0.93359842     0.62900
F759        F  0.87682556  0.35762489  0.06524680    -0.22300
F760        F  0.91785526  0.33030409  0.13435151    -0.19600
F761        F  0.85869868  0.27794270  0.09377795    -0.19300
F762        F  0.11718463  0.29156053  0.95224134    -0.19300
F763        F  0.06123905  0.28338469  0.88627587    -0.19600
F764        F  0.09187453  0.21017605  0.92410375    -0.22300
C765        C  0.90865892  0.71265043  0.98826863    -0.05100
C766        C  0.93558997  0.66304731  0.99239241     0.00800
C767        C  0.99085668  0.65692069  0.97656375    -0.07800
C768        C  0.01133502  0.69160016  0.94000736    -0.05200
C769        C  0.97897509  0.73445966  0.92488318     0.00800
C770        C  0.93228131  0.75047232  0.95700726    -0.07700
C771        C  0.90526422  0.80497740  0.95499033     0.62700
H772        H  0.86769508  0.71961404  0.00435453     0.13400
H773        H  0.04953063  0.68127983  0.91855590     0.13400
C774        C  0.02578027  0.61048166  0.99283928     0.62900
F775        F  0.89376987  0.82704826  0.00641715    -0.22300
F776        F  0.85876304  0.80040974  0.92938654    -0.19600
F777        F  0.93734422  0.83889212  0.92801101    -0.19300
F778        F  0.07938511  0.61748116  0.98070553    -0.19300
F779        F  0.01255115  0.56341174  0.96691790    -0.19600
F780        F  0.01878662  0.60674871  0.04739836    -0.22300
C781        C  0.99224661  0.54912231  0.23284774    -0.05100
C782        C  0.03036223  0.58205950  0.21096953     0.00800
C783        C  0.06087405  0.56442547  0.16315868    -0.07800
C784        C  0.04373736  0.52066132  0.13354255    -0.05200
C785        C  0.99642732  0.49720135  0.14904672     0.00800
C786        C  0.97474715  0.50583553  0.20200591    -0.07700
C787        C  0.92963488  0.47456437  0.22437888     0.62700
H788        H  0.97101983  0.56132677  0.27076800     0.13400
H789        H  0.06144204  0.51074777  0.09358500     0.13400
C790        C  0.10673395  0.59467659  0.13949305     0.62900
F791        F  0.88532290  0.50848990  0.23873037    -0.22300
F792        F  0.94579916  0.45055717  0.26917965    -0.19600
F793        F  0.91524502  0.43512043  0.18803042    -0.19300
F794        F  0.14747494  0.59618757  0.17404862    -0.19300
F795        F  0.08911226  0.64601681  0.13012769    -0.19600
F796        F  0.12818856  0.57050636  0.09138082    -0.22300
C797        C  0.50572721  0.39314845  0.19565748    -0.05100
C798        C  0.54032545  0.43444803  0.19228044     0.00800
C799        C  0.53453329  0.47529559  0.23316685    -0.07800
C800        C  0.48383005  0.48610851  0.25965665    -0.05200
C801        C  0.44102880  0.45460271  0.24664367     0.00800
C802        C  0.45259427  0.40552324  0.21481135    -0.07700
C803        C  0.40981602  0.37046478  0.19340967     0.62700
H804        H  0.51553852  0.35762858  0.16994056     0.13400
H805        H  0.47686213  0.52111806  0.28701930     0.13400
C806        C  0.58057411  0.50876127  0.24636662     0.62900
F807        F  0.43007328  0.33419297  0.15261450    -0.22300
F808        F  0.36992834  0.40142426  0.17302330    -0.19600
F809        F  0.38821159  0.34165172  0.23319821    -0.19300
F810        F  0.57057240  0.56025873  0.23204404    -0.19300
F811        F  0.62768635  0.48791524  0.21980084    -0.19600
F812        F  0.58692629  0.50953268  0.30070793    -0.22300
C813        C  0.70488255  0.51315719  0.99968698    -0.05100
C814        C  0.71374159  0.45810310  0.98784700     0.00800
C815        C  0.76512864  0.43447427  0.99342672    -0.07800
C816        C  0.80025382  0.46289342  0.02440088    -0.05200
C817        C  0.78232137  0.51171770  0.05138253     0.00800
C818        C  0.74156109  0.54162439  0.02797665    -0.07700
C819        C  0.73557902  0.60197847  0.03317909     0.62700
H820        H  0.66746935  0.53295334  0.99049619     0.13400
H821        H  0.83640389  0.44265518  0.03603152     0.13400
C822        C  0.78257664  0.37929040  0.97050641     0.62900
F823        F  0.70487799  0.62109872  0.99377774    -0.22300
F824        F  0.78524718  0.62290319  0.02700989    -0.19600
F825        F  0.71103965  0.61981914  0.08212903    -0.19300
F826        F  0.82996461  0.38113054  0.94003377    -0.19300
F827        F  0.74527676  0.35844771  0.93821601    -0.19600
F828        F  0.79045007  0.34639538  0.01149625    -0.22300
C829        C  0.26702129  0.50066113  0.97931877    -0.05100
C830        C  0.28574110  0.53082205  0.93776796     0.00800
C831        C  0.33428198  0.55700035  0.94234296    -0.07800
C832        C  0.36588011  0.54505998  0.98468701    -0.05200
C833        C  0.35266371  0.50462304  0.01825996     0.00800
C834        C  0.30008799  0.48716878  0.01997840    -0.07700
C835        C  0.28018286  0.44925495  0.05976490     0.62700
H836        H  0.22900275  0.48238119  0.97656673     0.13400
H837        H  0.40607787  0.55862121  0.98487593     0.13400
C838        C  0.35622109  0.59190298  0.89972422     0.62900
F839        F  0.31492910  0.44346961  0.09978518    -0.22300
F840        F  0.27429333  0.39995319  0.03396736    -0.19600
F841        F  0.23115283  0.46881506  0.08300977    -0.19300
F842        F  0.32161325  0.63561679  0.89578443    -0.19300
F843        F  0.36292490  0.56321776  0.85079688    -0.19600
F844        F  0.40513315  0.61088464  0.91171129    -0.22300
C845        C  0.50245483  0.53773255  0.84140870    -0.05100
C846        C  0.49990014  0.48255054  0.83032847     0.00800
C847        C  0.50450862  0.46269825  0.77620102    -0.07800
C848        C  0.52334837  0.49682001  0.73765439    -0.05200
C849        C  0.54984838  0.54213981  0.75516286     0.00800
C850        C  0.52738177  0.56879391  0.80359416    -0.07700
C851        C  0.53746985  0.62582442  0.82025027     0.62700
H852        H  0.49480133  0.55408665  0.88223792     0.13400
H853        H  0.53256927  0.48013114  0.69714685     0.13400
C854        C  0.49542830  0.40558142  0.75805233     0.62900
F855        F  0.49664753  0.64798691  0.85550356    -0.22300
F856        F  0.53886257  0.65572705  0.77623646    -0.19600
F857        F  0.58515927  0.62823471  0.84492929    -0.19300
F858        F  0.45140622  0.40493431  0.72750695    -0.19300
F859        F  0.48667441  0.37379052  0.80010427    -0.19600
F860        F  0.53959951  0.38370731  0.72729958    -0.22300
C861        C  0.12846632  0.52836775  0.52041940    -0.05100
C862        C  0.14715323  0.49114812  0.47877172     0.00800
C863        C  0.19850918  0.49497972  0.45390933    -0.07800
C864        C  0.22622043  0.54076135  0.46582378    -0.05200
C865        C  0.20236396  0.58294189  0.49940391     0.00800
C866        C  0.15307626  0.57657012  0.52866057    -0.07700
C867        C  0.12278485  0.62200050  0.56285755     0.62700
H868        H  0.08923453  0.52360145  0.53935743     0.13400
H869        H  0.26463980  0.54610521  0.44547116     0.13400
C870        C  0.22149979  0.45325998  0.41188033     0.62900
F871        F  0.07248840  0.60817827  0.58085964    -0.22300
F872        F  0.11619541  0.66603008  0.53311167    -0.19600
F873        F  0.14988315  0.63567485  0.60745801    -0.19300
F874        F  0.27247657  0.46454048  0.39346647    -0.19300
F875        F  0.18940546  0.45103761  0.36905684    -0.19600
F876        F  0.22424069  0.40409490  0.43342781    -0.22300
C877        C  0.02782193  0.19623503  0.48280384    -0.05100
C878        C  0.05314002  0.20169891  0.53132742     0.00800
C879        C  0.02085213  0.22867177  0.57343285    -0.07800
C880        C  0.98551402  0.27072273  0.56112186    -0.05200
C881        C  0.97976996  0.28109523  0.50752953     0.00800
C882        C  0.99646728  0.24032855  0.46759969    -0.07700
C883        C  0.99038451  0.24807410  0.40890807     0.62700
H884        H  0.04517679  0.16718436  0.45220138     0.13400
H885        H  0.96810751  0.29873154  0.59265269     0.13400
C886        C  0.02542307  0.21645010  0.63048212     0.62900
F887        F  0.00081923  0.20082669  0.37799219    -0.22300
F888        F  0.02586345  0.28460572  0.39176989    -0.19600
F889        F  0.93887628  0.26671979  0.40102411    -0.19300
F890        F  0.05216936  0.16761952  0.63463957    -0.19300
F891        F  0.97489561  0.21459907  0.65506424    -0.19600
F892        F  0.05252557  0.25606167  0.65541629    -0.22300
C893        C  0.75279527  0.48056434  0.54235635    -0.05100
C894        C  0.77463460  0.47887917  0.48966321     0.00800
C895        C  0.73959224  0.47902117  0.44743819    -0.07800
C896        C  0.68508721  0.47148015  0.46015596    -0.05200
C897        C  0.67134855  0.44912932  0.50881340     0.00800
C898        C  0.69884577  0.47037472  0.55202914    -0.07700
C899        C  0.67425815  0.47754324  0.60800618     0.62700
H900        H  0.77789505  0.48784508  0.57539827     0.13400
H901        H  0.65740486  0.46948913  0.42878615     0.13400
C902        C  0.75994866  0.48390513  0.39010462     0.62900
F903        F  0.70261970  0.44510304  0.63977469    -0.22300
F904        F  0.62114986  0.46494858  0.61036337    -0.19600
F905        F  0.67720714  0.52999979  0.62682696    -0.19300
F906        F  0.79886507  0.44397071  0.37515446    -0.19300
F907        F  0.78150649  0.53291944  0.38523943    -0.19600
F908        F  0.71939082  0.47947751  0.35536583    -0.22300
C909        C  0.97674543  0.67183769  0.51472654    -0.05100
C910        C  0.97625573  0.65685784  0.45997375     0.00800
C911        C  0.97572853  0.69753892  0.42352002    -0.07800
C912        C  0.96984269  0.75082421  0.44452249    -0.05200
C913        C  0.94495734  0.76023668  0.49585461     0.00800
C914        C  0.96420477  0.72495626  0.53308363    -0.07700
C915        C  0.97001268  0.74115491  0.59117272     0.62700
H916        H  0.98326248  0.64185076  0.54310185     0.13400
H917        H  0.96839307  0.78250330  0.41723956     0.13400
C918        C  0.97855137  0.68822091  0.36380285     0.62900
F919        F  0.02162745  0.72817580  0.60417676    -0.22300
F920        F  0.93500808  0.71416636  0.62285951    -0.19600
F921        F  0.96012303  0.79539616  0.60163979    -0.19300
F922        F  0.97945819  0.63523641  0.34602740    -0.19300
F923        F  0.02447668  0.70995238  0.34484853    -0.19600
F924        F  0.93481733  0.71370787  0.34368349    -0.22300
C925        C  0.46575373  0.04985491  0.76700159    -0.05100
C926        C  0.50676982  0.08057405  0.78610672     0.00800
C927        C  0.55866415  0.05462902  0.78374075    -0.07800
C928        C  0.57103050  0.01276412  0.74464590    -0.05200
C929        C  0.53193296  0.99697614  0.71041699     0.00800
C930        C  0.47753771  0.00904961  0.72697695    -0.07700
C931        C  0.43212614  0.98786161  0.69603691     0.62700
H932        H  0.42445247  0.06297103  0.77534065     0.13400
H933        H  0.61238211  0.99884772  0.73558512     0.13400
C934        C  0.60143060  0.07011163  0.82049141     0.62900
F935        F  0.38363981  0.99601861  0.72548041    -0.22300
F936        F  0.44031149  0.93372010  0.68403875    -0.19600
F937        F  0.42869204  0.01361022  0.64927318    -0.19300
F938        F  0.64588139  0.08560066  0.79142350    -0.19300
F939        F  0.61623757  0.02630607  0.84764895    -0.19600
F940        F  0.58318440  0.11098881  0.85734737    -0.22300
C941        C  0.57201936  0.22919991  0.44657792    -0.05100
C942        C  0.52137574  0.25455880  0.44058334     0.00800
C943        C  0.48203656  0.25341210  0.48343190    -0.07800
C944        C  0.48794736  0.21366426  0.51998460    -0.05200
C945        C  0.53353704  0.17855651  0.51599956     0.00800
C946        C  0.57898065  0.19159082  0.48467078    -0.07700
C947        C  0.63250691  0.16062879  0.48635637     0.62700
H948        H  0.60440410  0.23233708  0.41696802     0.13400
H949        H  0.45443606  0.20602824  0.54711350     0.13400
C950        C  0.43341989  0.29192688  0.49109055     0.62900
F951        F  0.67202752  0.18168773  0.45463209    -0.22300
F952        F  0.62864784  0.10796247  0.46859559    -0.19600
F953        F  0.64838337  0.16269315  0.53810817    -0.19300
F954        F  0.38737703  0.26447893  0.48661926    -0.19300
F955        F  0.43442140  0.33070546  0.45444266    -0.19600
F956        F  0.43221535  0.31733085  0.54159014    -0.22300
C957        C  0.46838571  0.96113873  0.32020924    -0.05100
C958        C  0.51982410  0.97656164  0.32823469     0.00800
C959        C  0.55372369  0.98741290  0.28379272    -0.07800
C960        C  0.53955358  0.96845296  0.23275858    -0.05200
C961        C  0.49575986  0.93577139  0.22881161     0.00800
C962        C  0.45421696  0.94708769  0.26890666    -0.07700
C963        C  0.39600000  0.94270476  0.26082234     0.62700
H964        H  0.43924457  0.96083579  0.35379319     0.13400
H965        H  0.56884588  0.96771633  0.19953065     0.13400
C966        C  0.60436422  0.01637974  0.29068704     0.62900
F967        F  0.36998644  0.99007081  0.28068317    -0.22300
F968        F  0.37693725  0.90127648  0.28872584    -0.19600
F969        F  0.38579213  0.93497191  0.20768966    -0.19300
F970        F  0.63036431  0.02377005  0.24195129    -0.19300
F971        F  0.63847582  0.98753314  0.32071676    -0.19600
F972        F  0.59202888  0.06604578  0.31639146    -0.22300
C973        C  0.48059889  0.72856708  0.54511893    -0.05100
C974        C  0.52203260  0.70433389  0.57212666     0.00800
C975        C  0.57401734  0.70665588  0.54718624    -0.07800
C976        C  0.58563557  0.75250819  0.52038704    -0.05200
C977        C  0.54396053  0.78940391  0.51087978     0.00800
C978        C  0.49076780  0.77327848  0.51598692    -0.07700
C979        C  0.44497774  0.80643670  0.49601218     0.62700
H980        H  0.43965182  0.71971182  0.55469452     0.13400
H981        H  0.62674545  0.76115044  0.51053278     0.13400
C982        C  0.61666785  0.66235772  0.54952508     0.62900
F983        F  0.39702659  0.78189187  0.50163139    -0.22300
F984        F  0.45519886  0.81406091  0.44245205    -0.19600
F985        F  0.43960728  0.85530139  0.52453324    -0.19300
F986        F  0.59793758  0.62159431  0.57877216    -0.19300
F987        F  0.66134238  0.68158054  0.57219920    -0.19600
F988        F  0.63140436  0.64170631  0.49817011    -0.22300
loop_ 
_geom_bond_atom_site_label_1 
_geom_bond_atom_site_label_2 
_geom_bond_distance 
_geom_bond_site_symmetry_2 
_ccdc_geom_bond_type 
N1            C6   1.355       .  A
N1            C5   1.346       .  A
N1           H33   1.044       .  S
N2            C9   1.352       .  A
N2           C10   1.351       .  A
N3            C8   1.349       .  A
N3            C7   1.352       .  A
N3           H34   1.042       .  S
N4           C11   1.346       .  A
N4           C12   1.343       .  A
C5           C13   1.391       .  A
C5           C21   1.415   1_545  A
C6           C22   1.406       .  A
C6           C14   1.380       .  A
C7           C15   1.384       .  A
C7           C24   1.410       .  A
C8           C23   1.417       .  A
C8           C16   1.388       .  A
C9           C21   1.407       .  A
C9           C17   1.382       .  A
C10          C24   1.420       .  A
C10          C18   1.385       .  A
C11          C19   1.387       .  A
C11          C22   1.405       .  A
C12          C20   1.386       .  A
C12          C23   1.401   1_545  A
C13          C14   1.373       .  A
C13          H25   1.078       .  S
C14          H26   1.082       .  S
C15          C16   1.378       .  A
C15          H27   1.082       .  S
C16          H28   1.077       .  S
C17          C18   1.370       .  A
C17          H29   1.083       .  S
C18          H30   1.072       .  S
C19          C20   1.365       .  A
C19          H31   1.079       .  S
C20          H32   1.083       .  S
C21         C929   1.480       .  S
C22         C945   1.483       .  S
C23         C958   1.467       .  S
C24         C977   1.490       .  S
N35          C40   1.355       .  A
N35          C39   1.349       .  A
N35          H67   1.042       .  S
N36          C43   1.354       .  A
N36          C44   1.352       .  A
N37          C42   1.353       .  A
N37          C41   1.348       .  A
N37          H68   1.039       .  S
N38          C45   1.345       .  A
N38          C46   1.344       .  A
C39          C47   1.391       .  A
C39          C55   1.414   1_455  A
C40          C56   1.407       .  A
C40          C48   1.383       .  A
C41          C49   1.385       .  A
C41          C58   1.405       .  A
C42          C57   1.416       .  A
C42          C50   1.390       .  A
C43          C55   1.412       .  A
C43          C51   1.384       .  A
C44          C58   1.419       .  A
C44          C52   1.386       .  A
C45          C53   1.393       .  A
C45          C56   1.409       .  A
C46          C54   1.382       .  A
C46          C57   1.404   1_455  A
C47          C48   1.372       .  A
C47          H59   1.079       .  S
C48          H60   1.082       .  S
C49          C50   1.372       .  A
C49          H61   1.082       .  S
C50          H62   1.082       .  S
C51          C52   1.376       .  A
C51          H63   1.082       .  S
C52          H64   1.079       .  S
C53          C54   1.368       .  A
C53          H65   1.081       .  S
C54          H66   1.081       .  S
C55         C881   1.486       .  S
C56         C862   1.483       .  S
C57         C910   1.480       .  S
C58         C894   1.481       .  S
N69          C74   1.345       .  A
N69          C73   1.349       .  A
N69         H101   1.040       .  S
N70          C77   1.348       .  A
N70          C78   1.344       .  A
N71          C76   1.344       .  A
N71          C75   1.349       .  A
N71         H102   1.043       .  S
N72          C79   1.353       .  A
N72          C80   1.357       .  A
C73          C81   1.390       .  A
C73          C89   1.415   1_556  A
C74          C90   1.402       .  A
C74          C82   1.384       .  A
C75          C83   1.384       .  A
C75          C92   1.406       .  A
C76          C91   1.403   1_554  A
C76          C84   1.387       .  A
C77          C89   1.405       .  A
C77          C85   1.383       .  A
C78          C92   1.411       .  A
C78          C86   1.386       .  A
C79          C87   1.382       .  A
C79          C90   1.420       .  A
C80          C88   1.378       .  A
C80          C91   1.406       .  A
C81          C82   1.376       .  A
C81          H93   1.079       .  S
C82          H94   1.082       .  S
C83          C84   1.383       .  A
C83          H95   1.082       .  S
C84          H96   1.079       .  S
C85          C86   1.380       .  A
C85          H97   1.082       .  S
C86          H98   1.080       .  S
C87          C88   1.358       .  A
C87          H99   1.062       .  S
C88         H100   1.083       .  S
C89         C833   1.487       .  S
C90         C846   1.489       .  S
C91         C814   1.483       .  S
C92         C798   1.485       .  S
N103        C108   1.348       .  A
N103        C107   1.355       .  A
N103        H135   1.039       .  S
N104        C111   1.346   1_654  A
N104        C112   1.344       .  A
N105        C110   1.350       .  A
N105        C109   1.353       .  A
N105        H136   1.022       .  S
N106        C113   1.350       .  A
N106        C114   1.348       .  A
C107        C115   1.384       .  A
C107        C123   1.413       .  A
C108        C124   1.409       .  A
C108        C116   1.383       .  A
C109        C117   1.393       .  A
C109        C126   1.426       .  A
C110        C125   1.400   1_554  A
C110        C118   1.376       .  A
C111        C123   1.406   1_455  A
C111        C119   1.386   1_556  A
C112        C126   1.407       .  A
C112        C120   1.385   1_655  A
C113        C121   1.380       .  A
C113        C124   1.399       .  A
C114        C122   1.387       .  A
C114        C125   1.414       .  A
C115        C116   1.383       .  A
C115        H127   1.082       .  S
C116        H128   1.080       .  S
C117        C118   1.371       .  A
C117        H129   1.075       .  S
C118        H130   1.083       .  S
C119        C120   1.363       .  A
C119        H131   1.076       .  S
C120        H132   1.082       .  S
C121        C122   1.367       .  A
C121        H133   1.083       .  S
C122        H134   1.075       .  S
C123        C750   1.493       .  S
C124        C734   1.479       .  S
C125        C766   1.483       .  S
C126        C785   1.479       .  S
N137        C142   1.358       .  A
N137        C141   1.357       .  A
N137        H169   1.034       .  S
N138        C145   1.348       .  A
N138        C146   1.355       .  A
N139        C144   1.349       .  A
N139        C143   1.351       .  A
N139        H170   1.043       .  S
N140        C147   1.346       .  A
N140        C148   1.348       .  A
C141        C149   1.384       .  A
C141        C157   1.417       .  A
C142        C158   1.427   1_565  A
C142        C150   1.387       .  A
C143        C151   1.378       .  A
C143        C160   1.397   1_545  A
C144        C159   1.398       .  A
C144        C152   1.385       .  A
C145        C157   1.421       .  A
C145        C153   1.390       .  A
C146        C160   1.395       .  A
C146        C154   1.375       .  A
C147        C155   1.387       .  A
C147        C158   1.411       .  A
C148        C156   1.377       .  A
C148        C159   1.409       .  A
C149        C150   1.370       .  A
C149        H161   1.082       .  S
C150        H162   1.076       .  S
C151        C152   1.368       .  A
C151        H163   1.076       .  S
C152        H164   1.083       .  S
C153        C154   1.366       .  A
C153        H165   1.073       .  S
C154        H166   1.082       .  S
C155        C156   1.370       .  A
C155        H167   1.082       .  S
C156        H168   1.072       .  S
C157        C673   1.488       .  S
C158        C702   1.487       .  S
C159        C721   1.491       .  S
C160        C686   1.472       .  S
Zn171       O175   2.010       .  S
Zn171       O176   2.015       .  S
Zn171       O180   2.099       .  S
Zn171       O187   2.103       .  S
Zn172       O175   1.974       .  S
Zn172       O177   2.047       .  S
Zn172       O179   2.106       .  S
Zn172       O183   2.113       .  S
Zn173       O175   1.942       .  S
Zn173       O178   1.966       .  S
Zn173       O181   2.042       .  S
Zn173       O184   2.014       .  S
Zn174       O175   1.950       .  S
Zn174       O182   2.089       .  S
Zn174       O185   2.025       .  S
Zn174       O186   1.997       .  S
O176        C188   1.276       .  A
O177        C189   1.283       .  A
O178        C190   1.271       .  A
O179        C188   1.284       .  A
O180        C190   1.281       .  A
O181        C189   1.272       .  A
O182        C191   1.276       .  A
O183        C192   1.287       .  A
O184        C191   1.276       .  A
O185        C192   1.274       .  A
O186        C193   1.278       .  A
O187        C193   1.280       .  A
C188        C587   1.495       .  S
C189        C600   1.484       .  S
C190        C580   1.486       .  S
C191        C564   1.496       .  S
C192        C573   1.490       .  S
C193        C506   1.497       .  S
Zn194       O198   1.987       .  S
Zn194       O199   2.097       .  S
Zn194       O203   2.074       .  S
Zn194       O210   2.137       .  S
Zn195       O198   1.941       .  S
Zn195       O200   2.085       .  S
Zn195       O202   1.990       .  S
Zn195       O206   2.006       .  S
Zn196       O198   1.925       .  S
Zn196       O201   2.053       .  S
Zn196       O204   1.987       .  S
Zn196       O207   1.943       .  S
Zn197       O198   1.987       .  S
Zn197       O205   2.140       .  S
Zn197       O208   2.073       .  S
Zn197       O209   2.010       .  S
O199        C211   1.285       .  A
O200        C212   1.276       .  A
O201        C213   1.274       .  A
O202        C211   1.274       .  A
O203        C213   1.283       .  A
O204        C212   1.269       .  A
O205        C214   1.283       .  A
O206        C215   1.277       .  A
O207        C214   1.271       .  A
O208        C215   1.278       .  A
O209        C216   1.279       .  A
O210        C216   1.288       .  A
C211        C578   1.487       .  S
C212        C551   1.487       .  S
C213        C481   1.498       .  S
C214        C569   1.507       .  S
C215        C501   1.483       .  S
C216        C537   1.505       .  S
Zn217       O221   1.947       .  S
Zn217       O222   2.062       .  S
Zn217       O226   1.970       .  S
Zn217       O233   2.070       .  S
Zn218       O221   1.953       .  S
Zn218       O223   1.954       .  S
Zn218       O225   2.040       .  S
Zn218       O229   1.989       .  S
Zn219       O221   2.068       .  S
Zn219       O224   2.161       .  S
Zn219       O227   2.122       .  S
Zn219       O230   2.104       .  S
Zn220       O221   1.959       .  S
Zn220       O228   2.017       .  S
Zn220       O231   2.083       .  S
Zn220       O232   2.048       .  S
O222        C234   1.278       .  A
O223        C235   1.271       .  A
O224        C236   1.286       .  A
O225        C234   1.271       .  A
O226        C236   1.275       .  A
O227        C235   1.283       .  A
O228        C237   1.279       .  A
O229        C238   1.269       .  A
O230        C237   1.283       .  A
O231        C238   1.277       .  A
O232        C239   1.281       .  A
O233        C239   1.274       .  A
C234        C456   1.486       .  S
C235        C560   1.491       .  S
C236        C526   1.521       .  S
C237        C438   1.494       .  S
C238        C544   1.484       .  S
C239        C591   1.500       .  S
Zn240       O244   1.978       .  S
Zn240       O245   1.999       .  S
Zn240       O249   2.053       .  S
Zn240       O256   2.099       .  S
Zn241       O244   1.981       .  S
Zn241       O246   1.995       .  S
Zn241       O248   2.102       .  S
Zn241       O252   2.048       .  S
Zn242       O244   1.986       .  S
Zn242       O247   2.113       .  S
Zn242       O250   2.108       .  S
Zn242       O253   2.087       .  S
Zn243       O244   1.976       .  S
Zn243       O251   2.024       .  S
Zn243       O254   2.083       .  S
Zn243       O255   2.006       .  S
O245        C257   1.276       .  A
O246        C258   1.273       .  A
O247        C259   1.286       .  A
O248        C257   1.276       .  A
O249        C259   1.278       .  A
O250        C258   1.280       .  A
O251        C260   1.273       .  A
O252        C261   1.280       .  A
O253        C260   1.288       .  A
O254        C261   1.277       .  A
O255        C262   1.277       .  A
O256        C262   1.279       .  A
C257        C524   1.509       .  S
C258        C533   1.499       .  S
C259        C519   1.503       .  S
C260        C542   1.484       .  S
C261        C411   1.500       .  S
C262        C555   1.503       .  S
Zn263       O267   1.942       .  S
Zn263       O268   1.924       .  S
Zn263       O272   2.010       .  S
Zn263       O279   2.071       .  S
Zn264       O267   2.081       .  S
Zn264       O269   2.159       .  S
Zn264       O271   2.183       .  S
Zn264       O275   2.183       .  S
Zn265       O267   1.961       .  S
Zn265       O270   2.110       .  S
Zn265       O273   1.990       .  S
Zn265       O276   2.044       .  S
Zn266       O267   1.935       .  S
Zn266       O274   2.055       .  S
Zn266       O277   1.961       .  S
Zn266       O278   1.985       .  S
O268        C280   1.268       .  A
O269        C281   1.287       .  A
O270        C282   1.279       .  A
O271        C280   1.289       .  A
O272        C282   1.274       .  A
O273        C281   1.277       .  A
O274        C283   1.272       .  A
O275        C284   1.292       .  A
O276        C283   1.279       .  A
O277        C284   1.271       .  A
O278        C285   1.272       .  A
O279        C285   1.270       .  A
C280        C492   1.511       .  S
C281        C443   1.517       .  S
C282        C508   1.502       .  S
C283        C472   1.493       .  S
C284        C596   1.515       .  S
C285        C427   1.492       .  S
Zn286       O290   1.965       .  S
Zn286       O291   2.060       .  S
Zn286       O295   1.979       .  S
Zn286       O302   2.097       .  S
Zn287       O290   1.959       .  S
Zn287       O292   2.083       .  S
Zn287       O294   2.042       .  S
Zn287       O298   1.997       .  S
Zn288       O290   1.990       .  S
Zn288       O293   2.095       .  S
Zn288       O296   2.070       .  S
Zn288       O299   2.091       .  S
Zn289       O290   2.002       .  S
Zn289       O297   2.066       .  S
Zn289       O300   2.093       .  S
Zn289       O301   2.041       .  S
O291        C303   1.277       .  A
O292        C304   1.276       .  A
O293        C305   1.281       .  A
O294        C303   1.276       .  A
O295        C305   1.276       .  A
O296        C304   1.284       .  A
O297        C306   1.281       .  A
O298        C307   1.277       .  A
O299        C306   1.283       .  A
O300        C307   1.278       .  A
O301        C308   1.278       .  A
O302        C308   1.279       .  A
C303        C479   1.485       .  S
C304        C370   1.505       .  S
C305        C470   1.483       .  S
C306        C497   1.495       .  S
C307        C488   1.503       .  S
C308        C461   1.502       .  S
Zn309       O313   1.974       .  S
Zn309       O314   2.064       .  S
Zn309       O318   2.064       .  S
Zn309       O325   2.096       .  S
Zn310       O313   1.915       .  S
Zn310       O315   2.027       .  S
Zn310       O317   2.107       .  S
Zn310       O321   2.017       .  S
Zn311       O313   1.954       .  S
Zn311       O316   2.047       .  S
Zn311       O319   2.115       .  S
Zn311       O322   2.006       .  S
Zn312       O313   2.026       .  S
Zn312       O320   2.084       .  S
Zn312       O323   2.126       .  S
Zn312       O324   1.991       .  S
O314        C326   1.283       .  A
O315        C327   1.279       .  A
O316        C328   1.279       .  A
O317        C326   1.277       .  A
O318        C328   1.282       .  A
O319        C327   1.279       .  A
O320        C329   1.279       .  A
O321        C330   1.278       .  A
O322        C329   1.278       .  A
O323        C330   1.281       .  A
O324        C331   1.273       .  A
O325        C331   1.282       .  A
C326        C434   1.513       .  S
C327        C447   1.511       .  S
C328        C418   1.483       .  S
C329        C452   1.501       .  S
C330        C400   1.513       .  S
C331        C425   1.488       .  S
N332        C337   1.354       .  A
N332        C336   1.357       .  A
N332        H364   1.043       .  S
N333        C340   1.347       .  A
N333        C341   1.349       .  A
N334        C339   1.353       .  A
N334        C338   1.351       .  A
N334        H365   1.043       .  S
N335        C342   1.353       .  A
N335        C343   1.351       .  A
C336        C344   1.379       .  A
C336        C352   1.406       .  A
C337        C353   1.423       .  A
C337        C345   1.386       .  A
C338        C346   1.385       .  A
C338        C355   1.421       .  A
C339        C354   1.410   1_655  A
C339        C347   1.382       .  A
C340        C352   1.413   1_655  A
C340        C348   1.387       .  A
C341        C355   1.402       .  A
C341        C349   1.378       .  A
C342        C350   1.383       .  A
C342        C353   1.409       .  A
C343        C351   1.388       .  A
C343        C354   1.419       .  A
C344        C345   1.360       .  A
C344        H356   1.083       .  S
C345        H357   1.067       .  S
C346        C347   1.367       .  A
C346        H358   1.070       .  S
C347        H359   1.083       .  S
C348        C349   1.372       .  A
C348        H360   1.077       .  S
C349        H361   1.081       .  S
C350        C351   1.370       .  A
C350        H362   1.082       .  S
C351        H363   1.079       .  S
C352        C606   1.490       .  S
C353        C622   1.494       .  S
C354        C654   1.487   1_455  S
C355        C638   1.492       .  S
C366        C367   1.412       .  A
C366        C371   1.430       .  A
C366        C394   1.498       .  S
C367        C368   1.406       .  A
C367        H372   1.084       .  S
C368        C369   1.404   1_545  A
C368        C625   1.505       .  S
C369        C370   1.399       .  A
C369        H373   1.080       .  S
C370        C371   1.427   1_565  A
C371        H374   1.082       .  S
Zn375       O379   1.966       .  S
Zn375       O380   2.031       .  S
Zn375       O384   2.058       .  S
Zn375       O391   2.102       .  S
Zn376       O379   1.975       .  S
Zn376       O381   2.031       .  S
Zn376       O383   2.069       .  S
Zn376       O387   2.024       .  S
Zn377       O379   1.984       .  S
Zn377       O382   2.092       .  S
Zn377       O385   2.107       .  S
Zn377       O388   2.058       .  S
Zn378       O379   2.015       .  S
Zn378       O386   2.079       .  S
Zn378       O389   2.101       .  S
Zn378       O390   2.093       .  S
O380        C392   1.281       .  A
O381        C393   1.276       .  A
O382        C394   1.282       .  A
O383        C392   1.274       .  A
O384        C394   1.278       .  A
O385        C393   1.281       .  A
O386        C395   1.278       .  A
O387        C396   1.281       .  A
O388        C395   1.287       .  A
O389        C396   1.284       .  A
O390        C397   1.285       .  A
O391        C397   1.284       .  A
C392        C515   1.504       .  S
C393        C416   1.503       .  S
C395        C407   1.505       .  S
C396        C465   1.495       .  S
C397        C398   1.514       .  S
C398        C399   1.435   1_455  A
C398        C403   1.422       .  A
C399        C400   1.427       .  A
C399        H404   1.082       .  S
C400        C401   1.403       .  A
C401        C402   1.391       .  A
C401        H405   1.083       .  S
C402        C403   1.412   1_655  A
C402        C753   1.506       .  S
C403        H406   1.083       .  S
C407        C408   1.397       .  A
C407        C412   1.432       .  A
C408        C409   1.393       .  A
C408        H413   1.084       .  S
C409        C410   1.391   1_554  A
C409        C689   1.479       .  S
C410        C411   1.408       .  A
C410        H414   1.085       .  S
C411        C412   1.435   1_556  A
C412        H415   1.082       .  S
C416        C417   1.422       .  A
C416        C421   1.412       .  A
C417        C418   1.420       .  A
C417        H422   1.083       .  S
C418        C419   1.398       .  A
C419        C420   1.397       .  A
C419        H423   1.084       .  S
C420        C421   1.409       .  A
C420        C942   1.505       .  S
C421        H424   1.081       .  S
C425        C426   1.426       .  A
C425        C430   1.411       .  A
C426        C427   1.424   1_545  A
C426        H431   1.080       .  S
C427        C428   1.399       .  A
C428        C429   1.387   1_565  A
C428        H432   1.080       .  S
C429        C430   1.391       .  A
C429        C609   1.483       .  S
C430        H433   1.085       .  S
C434        C435   1.404       .  A
C434        C439   1.432   1_554  A
C435        C436   1.396   1_554  A
C435        H440   1.076       .  S
C436        C437   1.386       .  A
C436        C718   1.479       .  S
C437        C438   1.404       .  A
C437        H441   1.086       .  S
C438        C439   1.431       .  A
C439        H442   1.081       .  S
C443        C444   1.412       .  A
C443        C448   1.437       .  A
C444        C445   1.381       .  A
C444        H449   1.076       .  S
C445        C446   1.396       .  A
C445        C817   1.494       .  S
C446        C447   1.405       .  A
C446        H450   1.083       .  S
C447        C448   1.437       .  A
C448        H451   1.081       .  S
C452        C453   1.407       .  A
C452        C457   1.425       .  A
C453        C454   1.400       .  A
C453        H458   1.079       .  S
C454        C455   1.399       .  A
C454        C897   1.517       .  S
C455        C456   1.400       .  A
C455        H459   1.075       .  S
C456        C457   1.422       .  A
C457        H460   1.082       .  S
C461        C462   1.412       .  A
C461        C466   1.431       .  A
C462        C463   1.402       .  A
C462        H467   1.083       .  S
C463        C464   1.383       .  A
C463        C801   1.489       .  S
C464        C465   1.400       .  A
C464        H468   1.081       .  S
C465        C466   1.426       .  A
C466        H469   1.082       .  S
C470        C471   1.427       .  A
C470        C475   1.402       .  A
C471        C472   1.429   1_455  A
C471        H476   1.083       .  S
C472        C473   1.403       .  A
C473        C474   1.393   1_655  A
C473        H477   1.081       .  S
C474        C475   1.377       .  A
C474        C782   1.470       .  S
C475        H478   1.083       .  S
C479        C480   1.418       .  A
C479        C484   1.399       .  A
C480        C481   1.421   1_554  A
C480        H485   1.083       .  S
C481        C482   1.408       .  A
C482        C483   1.410       .  A
C482        H486   1.081       .  S
C483        C484   1.404   1_556  A
C483        C670   1.512       .  S
C484        H487   1.079       .  S
C488        C489   1.408       .  A
C488        C493   1.434       .  A
C489        C490   1.381       .  A
C489        H494   1.072       .  S
C490        C491   1.393       .  A
C490        C961   1.501       .  S
C491        C492   1.414       .  A
C491        H495   1.081       .  S
C492        C493   1.429       .  A
C493        H496   1.082       .  S
C497        C498   1.406       .  A
C497        C502   1.429       .  A
C498        C499   1.399       .  A
C498        H503   1.085       .  S
C499        C500   1.378       .  A
C499        C865   1.471       .  S
C500        C501   1.394       .  A
C500        H504   1.084       .  S
C501        C502   1.428       .  A
C502        H505   1.083       .  S
C506        C507   1.428       .  A
C506        C511   1.401       .  A
C507        C508   1.428   1_556  A
C507        H512   1.082       .  S
C508        C509   1.408       .  A
C509        C510   1.409   1_554  A
C509        H513   1.082       .  S
C510        C511   1.386       .  A
C510        C705   1.510   1_556  S
C511        H514   1.072       .  S
C515        C516   1.399       .  A
C515        C520   1.423       .  A
C516        C517   1.406       .  A
C516        H521   1.078       .  S
C517        C518   1.414       .  A
C517        C878   1.526       .  S
C518        C519   1.414       .  A
C518        H522   1.073       .  S
C519        C520   1.422       .  A
C520        H523   1.083       .  S
C524        C525   1.436   1_455  A
C524        C529   1.409       .  A
C525        C526   1.434       .  A
C525        H530   1.082       .  S
C526        C527   1.413       .  A
C527        C528   1.390       .  A
C527        H531   1.075       .  S
C528        C529   1.396   1_655  A
C528        C737   1.515       .  S
C529        H532   1.080       .  S
C533        C534   1.415       .  A
C533        C538   1.431       .  A
C534        C535   1.396       .  A
C534        H539   1.083       .  S
C535        C536   1.396   1_545  A
C535        C657   1.502   1_545  S
C536        C537   1.404       .  A
C536        H540   1.078       .  S
C537        C538   1.424   1_565  A
C538        H541   1.082       .  S
C542        C543   1.417       .  A
C542        C547   1.401       .  A
C543        C544   1.415       .  A
C543        H548   1.081       .  S
C544        C545   1.403       .  A
C545        C546   1.403       .  A
C545        H549   1.076       .  S
C546        C547   1.407       .  A
C546        C926   1.513       .  S
C547        H550   1.079       .  S
C551        C552   1.403       .  A
C551        C556   1.427       .  A
C552        C553   1.379       .  A
C552        H557   1.082       .  S
C553        C554   1.392       .  A
C553        C830   1.477       .  S
C554        C555   1.409       .  A
C554        H558   1.082       .  S
C555        C556   1.428       .  A
C556        H559   1.082       .  S
C560        C561   1.408       .  A
C560        C565   1.428       .  A
C561        C562   1.388       .  A
C561        H566   1.084       .  S
C562        C563   1.395   1_545  A
C562        C641   1.495       .  S
C563        C564   1.402       .  A
C563        H567   1.081       .  S
C564        C565   1.425   1_565  A
C565        H568   1.083       .  S
C569        C570   1.414       .  A
C569        C574   1.431       .  A
C570        C571   1.382   1_455  A
C570        H575   1.083       .  S
C571        C572   1.394       .  A
C571        C769   1.485       .  S
C572        C573   1.399       .  A
C572        H576   1.082       .  S
C573        C574   1.430   1_655  A
C574        H577   1.082       .  S
C578        C579   1.417       .  A
C578        C583   1.413       .  A
C579        C580   1.414       .  A
C579        H584   1.083       .  S
C580        C581   1.406       .  A
C581        C582   1.400       .  A
C581        H585   1.076       .  S
C582        C583   1.404       .  A
C582        C974   1.517       .  S
C583        H586   1.081       .  S
C587        C588   1.416       .  A
C587        C592   1.424       .  A
C588        C589   1.401       .  A
C588        H593   1.078       .  S
C589        C590   1.408       .  A
C589        C849   1.517       .  S
C590        C591   1.399       .  A
C590        H594   1.080       .  S
C591        C592   1.421       .  A
C592        H595   1.081       .  S
C596        C597   1.414       .  A
C596        C601   1.423       .  A
C597        C598   1.409       .  A
C597        H602   1.077       .  S
C598        C599   1.387       .  A
C598        C913   1.516       .  S
C599        C600   1.398       .  A
C599        H603   1.075       .  S
C600        C601   1.429       .  A
C601        H604   1.082       .  S
C605        C606   1.399       .  A
C605        C610   1.403   1_455  A
C605        H612   1.084       .  S
C606        C607   1.422   1_465  A
C607        C608   1.402       .  A
C607        C614   1.522   1_655  S
C608        C609   1.400       .  A
C608        H613   1.083       .  S
C609        C610   1.417   1_545  A
C610        C611   1.510       .  S
C611        F615   1.383   1_655  S
C611        F616   1.384       .  S
C611        F617   1.383       .  S
C614        F618   1.384   1_455  S
C614        F619   1.382       .  S
C614        F620   1.379       .  S
C621        C622   1.404       .  A
C621        C626   1.407       .  A
C621        H628   1.084       .  S
C622        C623   1.421   1_565  A
C623        C624   1.407       .  A
C623        C630   1.511       .  S
C624        C625   1.404       .  A
C624        H629   1.083       .  S
C625        C626   1.416   1_545  A
C626        C627   1.507       .  S
C627        F631   1.382       .  S
C627        F632   1.384       .  S
C627        F633   1.382       .  S
C630        F634   1.382       .  S
C630        F635   1.381       .  S
C630        F636   1.380       .  S
C637        C638   1.403       .  A
C637        C642   1.407       .  A
C637        H644   1.083       .  S
C638        C639   1.418   1_565  A
C639        C640   1.399       .  A
C639        C646   1.511       .  S
C640        C641   1.403       .  A
C640        H645   1.081       .  S
C641        C642   1.416   1_545  A
C642        C643   1.508       .  S
C643        F647   1.381       .  S
C643        F648   1.383       .  S
C643        F649   1.383       .  S
C646        F650   1.386       .  S
C646        F651   1.382       .  S
C646        F652   1.381       .  S
C653        C654   1.400   1_455  A
C653        C658   1.405       .  A
C653        H660   1.084   1_455  S
C654        C655   1.415   1_665  A
C655        C656   1.405       .  A
C655        C662   1.518   1_455  S
C656        C657   1.407   1_545  A
C656        H661   1.081       .  S
C657        C658   1.419       .  A
C658        C659   1.510       .  S
C659        F663   1.383   1_455  S
C659        F664   1.384       .  S
C659        F665   1.377       .  S
C662        F666   1.381   1_655  S
C662        F667   1.381       .  S
C662        F668   1.382       .  S
C669        C670   1.406       .  A
C669        C674   1.401       .  A
C669        H676   1.081       .  S
C670        C671   1.421   1_556  A
C671        C672   1.406       .  A
C671        C678   1.511       .  S
C672        C673   1.402       .  A
C672        H677   1.084       .  S
C673        C674   1.419   1_554  A
C674        C675   1.515       .  S
C675        F679   1.384       .  S
C675        F680   1.380       .  S
C675        F681   1.384       .  S
C678        F682   1.383       .  S
C678        F683   1.382       .  S
C678        F684   1.384       .  S
C685        C686   1.397   1_545  A
C685        C690   1.398       .  A
C685        H692   1.085       .  S
C686        C687   1.411   1_564  A
C687        C688   1.404       .  A
C687        C694   1.515   1_545  S
C688        C689   1.404   1_556  A
C688        H693   1.083       .  S
C689        C690   1.417       .  A
C690        C691   1.513       .  S
C691        F695   1.384       .  S
C691        F696   1.383       .  S
C691        F697   1.384       .  S
C694        F698   1.383       .  S
C694        F699   1.381       .  S
C694        F700   1.384       .  S
C701        C702   1.401       .  A
C701        C706   1.398   1_544  A
C701        H708   1.081   1_554  S
C702        C703   1.414       .  A
C703        C704   1.411   1_545  A
C703        C710   1.493       .  S
C704        C705   1.396       .  A
C704        H709   1.083       .  S
C705        C706   1.414   1_554  A
C706        C707   1.506       .  S
C707        F711   1.383   1_565  S
C707        F712   1.384       .  S
C707        F713   1.385       .  S
C710        F714   1.380   1_545  S
C710        F715   1.377       .  S
C710        F716   1.381       .  S
C717        C718   1.399       .  A
C717        C722   1.404       .  A
C717        H724   1.082       .  S
C718        C719   1.411   1_556  A
C719        C720   1.408       .  A
C719        C726   1.511       .  S
C720        C721   1.406       .  A
C720        H725   1.084       .  S
C721        C722   1.421   1_554  A
C722        C723   1.519       .  S
C723        F727   1.380       .  S
C723        F728   1.378   1_556  S
C723        F729   1.382       .  S
C726        F730   1.384   1_554  S
C726        F731   1.377       .  S
C726        F732   1.384       .  S
C733        C734   1.404       .  A
C733        C738   1.404       .  A
C733        H740   1.082       .  S
C734        C735   1.425       .  A
C735        C736   1.409   1_655  A
C735        C742   1.518   1_655  S
C736        C737   1.403   1_455  A
C736        H741   1.082       .  S
C737        C738   1.414       .  A
C738        C739   1.507       .  S
C739        F743   1.383       .  S
C739        F744   1.382       .  S
C739        F745   1.384       .  S
C742        F746   1.385       .  S
C742        F747   1.381       .  S
C742        F748   1.382       .  S
C749        C750   1.385       .  A
C749        C754   1.400   1_556  A
C749        H756   1.084       .  S
C750        C751   1.408   1_655  A
C751        C752   1.416   1_556  A
C751        C758   1.498       .  S
C752        C753   1.412   1_455  A
C752        H757   1.083       .  S
C753        C754   1.437       .  A
C754        C755   1.514       .  S
C755        F759   1.382       .  S
C755        F760   1.380       .  S
C755        F761   1.376       .  S
C758        F762   1.381       .  S
C758        F763   1.380       .  S
C758        F764   1.382       .  S
C765        C766   1.401       .  A
C765        C770   1.405       .  A
C765        H772   1.084   1_556  S
C766        C767   1.418       .  A
C767        C768   1.401   1_655  A
C767        C774   1.516   1_655  S
C768        C769   1.402   1_455  A
C768        H773   1.083       .  S
C769        C770   1.410       .  A
C770        C771   1.504       .  S
C771        F775   1.383   1_556  S
C771        F776   1.372       .  S
C771        F777   1.384       .  S
C774        F778   1.385       .  S
C774        F779   1.381       .  S
C774        F780   1.382   1_556  S
C781        C782   1.408   1_655  A
C781        C786   1.402       .  A
C781        H788   1.083       .  S
C782        C783   1.420       .  A
C783        C784   1.392       .  A
C783        C790   1.525       .  S
C784        C785   1.399   1_455  A
C784        H789   1.083       .  S
C785        C786   1.408       .  A
C786        C787   1.513       .  S
C787        F791   1.383       .  S
C787        F792   1.383       .  S
C787        F793   1.383       .  S
C790        F794   1.381       .  S
C790        F795   1.383       .  S
C790        F796   1.386       .  S
C797        C798   1.392       .  A
C797        C802   1.403       .  A
C797        H804   1.079       .  S
C798        C799   1.403       .  A
C799        C800   1.407       .  A
C799        C806   1.505       .  S
C800        C801   1.410       .  A
C800        H805   1.084       .  S
C801        C802   1.436       .  A
C802        C803   1.526       .  S
C803        F807   1.385       .  S
C803        F808   1.379       .  S
C803        F809   1.374       .  S
C806        F810   1.381       .  S
C806        F811   1.385       .  S
C806        F812   1.384       .  S
C813        C814   1.403       .  A
C813        C818   1.396   1_556  A
C813        H820   1.084       .  S
C814        C815   1.410       .  A
C815        C816   1.404   1_556  A
C815        C822   1.503       .  S
C816        C817   1.405       .  A
C816        H821   1.082       .  S
C817        C818   1.416       .  A
C818        C819   1.516       .  S
C819        F823   1.385   1_554  S
C819        F824   1.382       .  S
C819        F825   1.381       .  S
C822        F826   1.381       .  S
C822        F827   1.378       .  S
C822        F828   1.379   1_556  S
C829        C830   1.402       .  A
C829        C834   1.401   1_556  A
C829        H836   1.085       .  S
C830        C831   1.422       .  A
C831        C832   1.403       .  A
C831        C838   1.524       .  S
C832        C833   1.403   1_556  A
C832        H837   1.082       .  S
C833        C834   1.411       .  A
C834        C835   1.507       .  S
C835        F839   1.379       .  S
C835        F840   1.383       .  S
C835        F841   1.384       .  S
C838        F842   1.378       .  S
C838        F843   1.384       .  S
C838        F844   1.383       .  S
C845        C846   1.405       .  A
C845        C850   1.407       .  A
C845        H852   1.084       .  S
C846        C847   1.416       .  A
C847        C848   1.412       .  A
C847        C854   1.514       .  S
C848        C849   1.410       .  A
C848        H853   1.084       .  S
C849        C850   1.424       .  A
C850        C851   1.508       .  S
C851        F855   1.385       .  S
C851        F856   1.376       .  S
C851        F857   1.383       .  S
C854        F858   1.383       .  S
C854        F859   1.379       .  S
C854        F860   1.383       .  S
C861        C862   1.403       .  A
C861        C866   1.399       .  A
C861        H868   1.084       .  S
C862        C863   1.410       .  A
C863        C864   1.402       .  A
C863        C870   1.509       .  S
C864        C865   1.400       .  A
C864        H869   1.083       .  S
C865        C866   1.423       .  A
C866        C867   1.528       .  S
C867        F871   1.385       .  S
C867        F872   1.384       .  S
C867        F873   1.380       .  S
C870        F874   1.384       .  S
C870        F875   1.382       .  S
C870        F876   1.382       .  S
C877        C878   1.411       .  A
C877        C882   1.413   1_455  A
C877        H884   1.083       .  S
C878        C879   1.411       .  A
C879        C880   1.407   1_455  A
C879        C886   1.495       .  S
C880        C881   1.403       .  A
C880        H885   1.083       .  S
C881        C882   1.419       .  A
C882        C883   1.516       .  S
C883        F887   1.384   1_655  S
C883        F888   1.383   1_655  S
C883        F889   1.382       .  S
C886        F890   1.383       .  S
C886        F891   1.382   1_455  S
C886        F892   1.376       .  S
C893        C894   1.401       .  A
C893        C898   1.401       .  A
C893        H900   1.084       .  S
C894        C895   1.418       .  A
C895        C896   1.412       .  A
C895        C902   1.515       .  S
C896        C897   1.410       .  A
C896        H901   1.082       .  S
C897        C898   1.413       .  A
C898        C899   1.499       .  S
C899        F903   1.378       .  S
C899        F904   1.385       .  S
C899        F905   1.382       .  S
C902        F906   1.383       .  S
C902        F907   1.382       .  S
C902        F908   1.384       .  S
C909        C910   1.405       .  A
C909        C914   1.401       .  A
C909        H916   1.083       .  S
C910        C911   1.416       .  A
C911        C912   1.408       .  A
C911        C918   1.502       .  S
C912        C913   1.401       .  A
C912        H917   1.084       .  S
C913        C914   1.418       .  A
C914        C915   1.509       .  S
C915        F919   1.383   1_655  S
C915        F920   1.384       .  S
C915        F921   1.381       .  S
C918        F922   1.378       .  S
C918        F923   1.374   1_655  S
C918        F924   1.380       .  S
C925        C926   1.408       .  A
C925        C930   1.400       .  A
C925        H932   1.076       .  S
C926        C927   1.423       .  A
C927        C928   1.405       .  A
C927        C934   1.508       .  S
C928        C929   1.400   1_545  A
C928        H933   1.085   1_545  S
C929        C930   1.416   1_565  A
C930        C931   1.518   1_545  S
C931        F935   1.386       .  S
C931        F936   1.379       .  S
C931        F937   1.382   1_565  S
C934        F938   1.384       .  S
C934        F939   1.379       .  S
C934        F940   1.382       .  S
C941        C942   1.413       .  A
C941        C946   1.400       .  A
C941        H948   1.079       .  S
C942        C943   1.420       .  A
C943        C944   1.408       .  A
C943        C950   1.514       .  S
C944        C945   1.404       .  A
C944        H949   1.084       .  S
C945        C946   1.412       .  A
C946        C947   1.522       .  S
C947        F951   1.384       .  S
C947        F952   1.382       .  S
C947        F953   1.382       .  S
C950        F954   1.383       .  S
C950        F955   1.384       .  S
C950        F956   1.383       .  S
C957        C958   1.390       .  A
C957        C962   1.387       .  A
C957        H964   1.085       .  S
C958        C959   1.413       .  A
C959        C960   1.412       .  A
C959        C966   1.511   1_565  S
C960        C961   1.411       .  A
C960        H965   1.078       .  S
C961        C962   1.412       .  A
C962        C963   1.496       .  S
C963        F967   1.380       .  S
C963        F968   1.383       .  S
C963        F969   1.379       .  S
C966        F970   1.381       .  S
C966        F971   1.382   1_545  S
C966        F972   1.383       .  S
C973        C974   1.409       .  A
C973        C978   1.407       .  A
C973        H980   1.079       .  S
C974        C975   1.419       .  A
C975        C976   1.407       .  A
C975        C982   1.512       .  S
C976        C977   1.404       .  A
C976        H981   1.083       .  S
C977        C978   1.416       .  A
C978        C979   1.514       .  S
C979        F983   1.385       .  S
C979        F984   1.383       .  S
C979        F985   1.381       .  S
C982        F986   1.385       .  S
C982        F987   1.383       .  S
C982        F988   1.383       .  S
