geometry optimzed in LAMMPS
_audit_creation_date              2020-11-30 
_audit_creation_method            'lammps2cif' 
_symmetry_space_group_name_H-M    'P1' 
_symmetry_Int_Tables_number       1 
_symmetry_cell_setting            triclinic 
loop_ 
_symmetry_equiv_pos_as_xyz 
  x,y,z 
_cell_length_a                    31.03631303 
_cell_length_b                    31.085767016539965 
_cell_length_c                    75.8170521309676 
_cell_angle_alpha                 90.0146658580921 
_cell_angle_beta                  89.9079125407441 
_cell_angle_gamma                 90.21859411961377 
loop_ 
_atom_site_label 
_atom_site_type_symbol 
_atom_site_fract_x 
_atom_site_fract_y 
_atom_site_fract_z 
_atom_site_charge 
O1          O  0.72188620  0.79374653  0.77121700    -0.73100
O2          O  0.70447140  0.70475878  0.73342177    -0.74100
O3          O  0.72215108  0.70296725  0.76999680    -0.62700
O4          O  0.70374099  0.79620951  0.73461396    -0.71100
O5          O  0.77373704  0.79702553  0.72907572    -0.70700
O6          O  0.79208747  0.70336889  0.76447643    -0.61900
O7          O  0.77440609  0.70567813  0.72786827    -0.74400
O8          O  0.79175460  0.79445246  0.76570715    -0.73200
Cu9        Cu  0.71065223  0.74939899  0.75248157     1.04600
Cu10       Cu  0.78540751  0.75020597  0.74654714     1.04300
C11         C  0.75958528  0.80804049  0.77464222     0.93100
C12         C  0.73675303  0.69076626  0.72469708     0.92200
C13         C  0.75975716  0.68823628  0.77292776     0.84400
C14         C  0.73603923  0.81186903  0.72633271     0.90600
O15         O  0.21390719  0.79511413  0.76614719    -0.73100
O16         O  0.23127941  0.70203038  0.73005286    -0.74100
O17         O  0.21189848  0.70312418  0.76638515    -0.62700
O18         O  0.23285011  0.79289582  0.72953989    -0.71100
O19         O  0.30266289  0.79169176  0.73505604    -0.70700
O20         O  0.28170203  0.70293270  0.77276315    -0.61900
O21         O  0.30110781  0.70012718  0.73639339    -0.74400
O22         O  0.28370688  0.79473208  0.77177347    -0.73200
Cu23       Cu  0.22007872  0.74839930  0.74785976     1.04600
Cu24       Cu  0.29473582  0.74744195  0.75424309     1.04300
C25         C  0.24626790  0.81021907  0.77459583     0.93100
C26         C  0.26873062  0.68607693  0.72773685     0.92200
C27         C  0.24366002  0.68801446  0.77504521     0.84400
C28         C  0.27086961  0.80632232  0.72619020     0.90600
O29         O  0.04680876  0.52787721  0.52009692    -0.73100
O30         O  0.95616529  0.54236572  0.48300221    -0.74100
O31         O  0.95594807  0.52159806  0.51943184    -0.62700
O32         O  0.04762578  0.54863832  0.48386705    -0.71100
O33         O  0.05160562  0.47909673  0.47727331    -0.70700
O34         O  0.95986452  0.45210866  0.51275700    -0.61900
O35         O  0.96060159  0.47327559  0.47646688    -0.74400
O36         O  0.05138012  0.45869582  0.51375862    -0.73200
Cu37       Cu  0.00143063  0.53751931  0.50181572     1.04600
Cu38       Cu  0.00606231  0.46336731  0.49482579     1.04300
C39         C  0.06363359  0.49113209  0.52289969     0.93100
C40         C  0.94370201  0.51010889  0.47383301     0.92200
C41         C  0.94352788  0.48278519  0.52168592     0.84400
C42         C  0.06412533  0.51786007  0.47504273     0.90600
N43         N  0.72885383  0.52835567  0.64423309    -0.27500
N44         N  0.69999310  0.50661473  0.65351431    -0.35300
C45         C  0.69480269  0.52593345  0.66925759     0.00900
C46         C  0.72226142  0.56103607  0.66999061     0.06900
C47         C  0.74309318  0.56181765  0.65385949    -0.06200
H48         H  0.67274105  0.51520314  0.67942139     0.07600
H49         H  0.76625251  0.58542433  0.64929075     0.08800
Cu50       Cu  0.66897715  0.45190969  0.64419338     0.34600
Cu51       Cu  0.74787359  0.51139786  0.61898716     0.42000
Cu52       Cu  0.69622795  0.41841466  0.59958161     0.43900
N53         N  0.63976514  0.40073255  0.63124893    -0.34800
N54         N  0.64842656  0.38977442  0.61476166    -0.29100
C55         C  0.62235577  0.35713407  0.61001296    -0.05200
C56         C  0.59642641  0.34678733  0.62424613     0.07000
C57         C  0.60839034  0.37490288  0.63750750     0.00800
H58         H  0.62254135  0.34184247  0.59718763     0.08500
H59         H  0.59468692  0.37708269  0.65061020     0.07500
N60         N  0.74857136  0.44970031  0.58829833    -0.36300
N61         N  0.76694477  0.48402449  0.59535091    -0.28500
C62         C  0.80146312  0.49505064  0.58563853    -0.03700
C63         C  0.80511061  0.46641166  0.57173805     0.04900
C64         C  0.77108397  0.43786557  0.57391676     0.03000
H65         H  0.82308477  0.52134907  0.58875375     0.08100
H66         H  0.76435689  0.40926329  0.56629726     0.06900
N67         N  0.26299701  0.50932614  0.65286663    -0.27500
N68         N  0.29976432  0.49566938  0.65953217    -0.35300
C69         C  0.31021224  0.52039317  0.67346902     0.00900
C70         C  0.27869931  0.55146584  0.67550271     0.06900
C71         C  0.24884171  0.54277462  0.66241745    -0.06200
H72         H  0.33941200  0.51706977  0.68111714     0.07600
H73         H  0.21909992  0.55949879  0.65981540     0.08800
Cu74       Cu  0.33496948  0.44633747  0.64826116     0.44200
Cu75       Cu  0.23704427  0.48673399  0.62953062     0.42000
Cu76       Cu  0.30509440  0.41745087  0.60324253     0.43900
N77         N  0.36535374  0.39908100  0.63361139    -0.34800
N78         N  0.35572164  0.38948993  0.61707044    -0.29100
C79         C  0.38206550  0.35792483  0.61151360    -0.05200
C80         C  0.40909625  0.34695324  0.62528688     0.07000
C81         C  0.39758322  0.37360157  0.63907038     0.00800
H82         H  0.38090840  0.34335077  0.59855859     0.08500
H83         H  0.41164655  0.37452570  0.65211779     0.07500
N84         N  0.24851931  0.44515385  0.59394231    -0.36300
N85         N  0.22319746  0.46930442  0.60382889    -0.28500
C86         C  0.18904087  0.48165893  0.59426244    -0.03700
C87         C  0.19256613  0.46424858  0.57750861     0.04900
C88         C  0.23107629  0.44162270  0.57775357     0.03000
H89         H  0.16340997  0.50192805  0.59917358     0.08100
H90         H  0.24617450  0.42476630  0.56695556     0.06900
O91         O  0.05264894  0.04632149  0.51687544    -0.73100
O92         O  0.95942947  0.03105482  0.48075551    -0.74100
O93         O  0.96087909  0.04990159  0.51733090    -0.62700
O94         O  0.05109769  0.02764478  0.48023550    -0.71100
O95         O  0.04660631  0.95749482  0.48549985    -0.70700
O96         O  0.95878107  0.98029314  0.52335288    -0.61900
O97         O  0.95534974  0.96163982  0.48684685    -0.74400
O98         O  0.05070999  0.97627625  0.52218738    -0.73200
Cu99       Cu  0.00613660  0.04114466  0.49860540     1.04600
Cu100      Cu  0.00282077  0.96652231  0.50472137     1.04300
C101        C  0.06682079  0.01352594  0.52514152     0.93100
C102        C  0.94212430  0.99425318  0.47816364     0.92200
C103        C  0.94521621  0.01850569  0.52614989     0.84400
C104        C  0.06262537  0.98907124  0.47690456     0.90600
N105        N  0.29634490  0.96512917  0.64529924    -0.27500
N106        N  0.32251927  0.98844330  0.65520826    -0.35300
C107        C  0.32845157  0.96802791  0.67067728     0.00900
C108        C  0.30498291  0.92998802  0.67038109     0.06900
C109        C  0.28483430  0.92949682  0.65414465    -0.06200
H110        H  0.34667400  0.98105754  0.68159384     0.07600
H111        H  0.26235776  0.90557455  0.64931058     0.08800
Cu112      Cu  0.34677770  0.04790158  0.64733636     0.44200
Cu113      Cu  0.27362302  0.98400405  0.62094504     0.42000
Cu114      Cu  0.30743621  0.08622136  0.60447080     0.43900
N115        N  0.36913412  0.10317355  0.63477554    -0.34800
N116        N  0.35603716  0.11587278  0.61900615    -0.29100
C117        C  0.37966067  0.15009857  0.61397009    -0.05200
C118        C  0.40855120  0.15977220  0.62725457     0.07000
C119        C  0.40090242  0.12956495  0.64029149     0.00800
H120        H  0.37625642  0.16653382  0.60147211     0.08500
H121        H  0.41832905  0.12590911  0.65254908     0.07500
N122        N  0.25972721  0.04938211  0.59240921    -0.36300
N123        N  0.24827196  0.01113045  0.59841362    -0.28500
C124        C  0.21642386  0.99521031  0.58834515    -0.03700
C125        C  0.20747754  0.02465505  0.57519629     0.04900
C126        C  0.23518699  0.05893302  0.57830924     0.03000
H127        H  0.19968482  0.96532918  0.59098787     0.08100
H128        H  0.23701451  0.08875011  0.57098502     0.06900
N129        N  0.72278376  0.98022060  0.64956163    -0.27500
N130        N  0.69104994  0.99984589  0.65790923    -0.35300
C131        C  0.68142382  0.97767996  0.67266192     0.00900
C132        C  0.70857841  0.94254114  0.67350389     0.06900
C133        C  0.73448669  0.94534972  0.65875051    -0.06200
H134        H  0.65759209  0.98728466  0.68229978     0.07600
H135        H  0.76043619  0.92396140  0.65509948     0.08800
Cu136      Cu  0.66392812  0.05621776  0.64868297     0.44200
Cu137      Cu  0.74982972  0.00171420  0.62634880     0.42000
Cu138      Cu  0.70065818  0.09076896  0.60456557     0.43900
N139        N  0.63853608  0.10753877  0.63480167    -0.34800
N140        N  0.64997506  0.11845622  0.61856840    -0.29100
C141        C  0.62452729  0.15072495  0.61307928    -0.05200
C142        C  0.59632279  0.16089844  0.62657076     0.07000
C143        C  0.60620128  0.13310451  0.64016110     0.00800
H144        H  0.62675201  0.16598103  0.60028128     0.08500
H145        H  0.59029859  0.13078877  0.65284208     0.07500
N146        N  0.75484456  0.05949488  0.59466822    -0.36300
N147        N  0.77258665  0.02663801  0.60293680    -0.28500
C148        C  0.80665751  0.01271272  0.59366665    -0.03700
C149        C  0.81054897  0.03772950  0.57869835     0.04900
C150        C  0.77749414  0.06749984  0.57982508     0.03000
H151        H  0.82729532  0.98652935  0.59766624     0.08100
H152        H  0.77013966  0.09264073  0.57045121     0.06900
O153        O  0.53799595  0.54625171  0.01492909    -0.73100
O154        O  0.45139307  0.52495813  0.97661765    -0.74100
O155        O  0.44640773  0.54300455  0.01310827    -0.62700
O156        O  0.54285356  0.52856521  0.97851358    -0.71100
O157        O  0.54462578  0.45863767  0.98397698    -0.70700
O158        O  0.44825193  0.47317250  0.01863236    -0.61900
O159        O  0.45320906  0.45526520  0.98225763    -0.74400
O160        O  0.53940694  0.47629600  0.02031952    -0.73200
Cu161      Cu  0.49458199  0.53814123  0.99558821     1.04600
Cu162      Cu  0.49640229  0.46345845  0.00150274     1.04300
C163        C  0.55307336  0.51426013  0.02348698     0.93100
C164        C  0.43814618  0.48679335  0.97343182     0.92200
C165        C  0.43169225  0.51021320  0.02128953     0.84400
C166        C  0.55960271  0.49163756  0.97597001     0.90600
N167        N  0.77629461  0.52580639  0.85216662    -0.27500
N168        N  0.80812571  0.50606207  0.84391458    -0.35300
C169        C  0.81633996  0.52681164  0.82868340     0.00900
C170        C  0.78831872  0.56125408  0.82741843     0.06900
C171        C  0.76323670  0.55933784  0.84245140    -0.06200
H172        H  0.83985766  0.51657945  0.81904055     0.07600
H173        H  0.73718207  0.58067456  0.84603601     0.08800
Cu174      Cu  0.83776287  0.45127075  0.85373610     0.44200
Cu175      Cu  0.75139580  0.50697872  0.87615259     0.42000
Cu176      Cu  0.80451996  0.41974389  0.89808182     0.43900
N177        N  0.86331957  0.39928482  0.86736603    -0.34800
N178        N  0.85257182  0.38915424  0.88374857    -0.29100
C179        C  0.87636813  0.35544187  0.88900396    -0.05200
C180        C  0.90288128  0.34339127  0.87520520     0.07000
C181        C  0.89372953  0.37176811  0.86167993     0.00800
H182        H  0.87414653  0.34049826  0.90186483     0.08500
H183        H  0.90871914  0.37294633  0.84879122     0.07500
N184        N  0.75161191  0.45153687  0.90853962    -0.36300
N185        N  0.73241471  0.48376831  0.90039532    -0.28500
C186        C  0.69889027  0.49715262  0.91013538    -0.03700
C187        C  0.69651953  0.47177263  0.92503082     0.04900
C188        C  0.73048405  0.44324529  0.92368625     0.03000
H189        H  0.67725989  0.52283211  0.90645059     0.08100
H190        H  0.73920383  0.41835631  0.93296860     0.06900
N191        N  0.28112813  0.45423072  0.89291442    -0.27500
N192        N  0.25762001  0.42831604  0.90285269    -0.35300
C193        C  0.27697129  0.42399969  0.91863785     0.00900
C194        C  0.31427167  0.44865594  0.91848686     0.06900
C195        C  0.31563975  0.46757927  0.90204739    -0.06200
H196        H  0.26388861  0.40589832  0.92960063     0.07600
H197        H  0.33939746  0.49028345  0.89722768     0.08800
Cu198      Cu  0.19909203  0.40354510  0.89425387     0.44200
Cu199      Cu  0.26312889  0.47403608  0.86818371     0.42000
Cu200      Cu  0.15865488  0.44531838  0.85165326     0.43900
N201        N  0.14436221  0.38109202  0.88141717    -0.34800
N202        N  0.13070576  0.39457280  0.86582446    -0.29100
C203        C  0.09668225  0.37028618  0.86094144    -0.05200
C204        C  0.08829703  0.34071317  0.87418015     0.07000
C205        C  0.11893567  0.34865672  0.88696264     0.00800
H206        H  0.07923480  0.37400551  0.84869286     0.08500
H207        H  0.12332766  0.33122577  0.89917789     0.07500
N208        N  0.19636055  0.49465022  0.84085665    -0.36300
N209        N  0.23555106  0.50304151  0.84669881    -0.28500
C210        C  0.25237406  0.53618869  0.83770280    -0.03700
C211        C  0.22204094  0.55060884  0.82579932     0.04900
C212        C  0.18707212  0.52293443  0.82792934     0.03000
H213        H  0.28461001  0.54831315  0.83973560     0.08100
H214        H  0.15685080  0.52389289  0.82085187     0.06900
O215        O  0.77828505  0.20914551  0.27036656    -0.73100
O216        O  0.79466538  0.29841250  0.23300915    -0.74100
O217        O  0.77609304  0.30052212  0.26940038    -0.62700
O218        O  0.79610898  0.20709109  0.23368302    -0.71100
O219        O  0.72625905  0.20566487  0.22823051    -0.70700
O220        O  0.70609092  0.29812216  0.26401759    -0.61900
O221        O  0.72454300  0.29689213  0.22763750    -0.74400
O222        O  0.70839095  0.20653807  0.26492700    -0.73200
Cu223      Cu  0.78869429  0.25377149  0.25183919     1.04600
Cu224      Cu  0.71390458  0.25163956  0.24601281     1.04300
C225        C  0.74112148  0.19328550  0.27356448     0.93100
C226        C  0.76198964  0.31245451  0.22462060     0.92200
C227        C  0.73801422  0.31467527  0.27217687     0.84400
C228        C  0.76409525  0.19162273  0.22513340     0.90600
O229        O  0.44892374  0.95301238  0.01796673    -0.73100
O230        O  0.53738950  0.97301732  0.98029665    -0.74100
O231        O  0.54078360  0.95085768  0.01653719    -0.62700
O232        O  0.44584461  0.97531911  0.98189706    -0.71100
O233        O  0.44908559  0.04465076  0.98844961    -0.70700
O234        O  0.54171617  0.02000275  0.02387303    -0.61900
O235        O  0.54119704  0.04202130  0.98766281    -0.74400
O236        O  0.45085713  0.02258974  0.02472287    -0.73200
Cu237      Cu  0.49317278  0.96062466  0.99891394     1.04600
Cu238      Cu  0.49582412  0.03473664  0.00639659     1.04300
C239        C  0.43580914  0.98478505  0.02715813     0.93100
C240        C  0.55379428  0.01043048  0.97822046     0.92200
C241        C  0.55602274  0.98180676  0.02573970     0.84400
C242        C  0.43222100  0.01374093  0.97971539     0.90600
N243        N  0.26623553  0.02307659  0.90145884    -0.27500
N244        N  0.24595584  0.05490569  0.90949167    -0.35300
C245        C  0.26536508  0.06257957  0.92509591     0.00900
C246        C  0.29889153  0.03365357  0.92701066     0.06900
C247        C  0.29865485  0.00941781  0.91173148    -0.06200
H248        H  0.25556113  0.08703032  0.93441403     0.07600
H249        H  0.32080111  0.98401605  0.90821716     0.08800
Cu250      Cu  0.19245787  0.08543690  0.89860050     0.44200
Cu251      Cu  0.24952739  0.99934279  0.87683721     0.42000
Cu252      Cu  0.15989648  0.04917712  0.85458091     0.43900
N253        N  0.14121416  0.11150661  0.88440887    -0.34800
N254        N  0.13032893  0.09944756  0.86826010    -0.29100
C255        C  0.09753457  0.12423342  0.86265028    -0.05200
C256        C  0.08692937  0.15284693  0.87595684     0.07000
C257        C  0.11516170  0.14373328  0.88955851     0.00800
H258        H  0.08230399  0.12139070  0.84987204     0.08500
H259        H  0.11723628  0.15997423  0.90215704     0.07500
N260        N  0.19393141  0.99703572  0.84426899    -0.36300
N261        N  0.22684097  0.97916326  0.85248538    -0.28500
C262        C  0.24187264  0.94645292  0.84267310    -0.03700
C263        C  0.21707025  0.94300575  0.82756247     0.04900
C264        C  0.18715824  0.97599122  0.82896735     0.03000
H265        H  0.26866973  0.92622979  0.84637859     0.08100
H266        H  0.16290343  0.98491460  0.81946560     0.06900
N267        N  0.78350375  0.96276846  0.85709555    -0.27500
N268        N  0.80968664  0.98661819  0.84739936    -0.35300
C269        C  0.81584149  0.96703399  0.83175523     0.00900
C270        C  0.79244883  0.92891769  0.83168117     0.06900
C271        C  0.77212031  0.92756812  0.84792237    -0.06200
H272        H  0.83406997  0.98075973  0.82096466     0.07600
H273        H  0.74955650  0.90341243  0.85252101     0.08800
Cu274      Cu  0.83332143  0.04570551  0.85594953     0.44200
Cu275      Cu  0.76067083  0.98146118  0.88150702     0.42000
Cu276      Cu  0.79284155  0.08533604  0.89845216     0.43900
N277        N  0.85685377  0.10001825  0.86880118    -0.34800
N278        N  0.84374987  0.11332370  0.88450538    -0.29100
C279        C  0.86856688  0.14677644  0.88957250    -0.05200
C280        C  0.89817918  0.15519943  0.87632708     0.07000
C281        C  0.88965981  0.12513560  0.86335175     0.00800
H282        H  0.86522143  0.16375418  0.90195835     0.08500
H283        H  0.90699679  0.12087482  0.85108420     0.07500
N284        N  0.74282997  0.04872172  0.90919371    -0.36300
N285        N  0.73274130  0.01003259  0.90326501    -0.28500
C286        C  0.69969609  0.99417456  0.91269343    -0.03700
C287        C  0.68723512  0.02468430  0.92498278     0.04900
C288        C  0.71586930  0.05867662  0.92252034     0.03000
H289        H  0.68655928  0.96239004  0.91074369     0.08100
H290        H  0.71661812  0.08872222  0.92971806     0.06900
O291        O  0.28542491  0.20959289  0.26647343    -0.73100
O292        O  0.26323641  0.30053792  0.22954148    -0.74100
O293        O  0.28466909  0.30162242  0.26597136    -0.62700
O294        O  0.26489263  0.20902493  0.23020219    -0.71100
O295        O  0.19532888  0.20793000  0.23661199    -0.70700
O296        O  0.21522177  0.30127668  0.27243322    -0.61900
O297        O  0.19383195  0.29948813  0.23606508    -0.74400
O298        O  0.21591371  0.20980737  0.27281468    -0.73200
Cu299      Cu  0.27698092  0.25535918  0.24782599     1.04600
Cu300      Cu  0.20273075  0.25470634  0.25473494     1.04300
C301        C  0.25347821  0.19432458  0.27517770     0.93100
C302        C  0.22493314  0.31419089  0.22681273     0.92200
C303        C  0.25304461  0.31649032  0.27485815     0.84400
C304        C  0.22727023  0.19320899  0.22787567     0.90600
N305        N  0.22381419  0.01758479  0.15280828    -0.27500
N306        N  0.19086717  0.99926587  0.16098587    -0.35300
C307        C  0.18356118  0.02067396  0.17617055     0.00900
C308        C  0.21389702  0.05338633  0.17762005     0.06900
C309        C  0.23844711  0.05065130  0.16248141    -0.06200
H310        H  0.15788402  0.01331552  0.18536888     0.07600
H311        H  0.26398270  0.07219846  0.15836350     0.08800
Cu312      Cu  0.15726434  0.94699828  0.15036578     0.44200
Cu313      Cu  0.24702045  0.99949678  0.12845818     0.42000
Cu314      Cu  0.19294090  0.91535512  0.10590319     0.43900
N315        N  0.12983688  0.89741932  0.13546689    -0.34800
N316        N  0.14188821  0.88757808  0.11920264    -0.29100
C317        C  0.11702812  0.85542039  0.11309040    -0.05200
C318        C  0.08835381  0.84392917  0.12617374     0.07000
C319        C  0.09731421  0.87102676  0.14020831     0.00800
H320        H  0.12032554  0.84084368  0.10019637     0.08500
H321        H  0.08112244  0.87179788  0.15285723     0.07500
N322        N  0.24665013  0.94584575  0.09573021    -0.36300
N323        N  0.26648618  0.97735483  0.10412584    -0.28500
C324        C  0.30059591  0.99029108  0.09458164    -0.03700
C325        C  0.30222328  0.96585252  0.07934427     0.04900
C326        C  0.26770463  0.93761288  0.08060363     0.03000
H327        H  0.32280892  0.01541671  0.09851922     0.08100
H328        H  0.25930127  0.91188896  0.07165236     0.06900
N329        N  0.78896999  0.03248158  0.14447980    -0.27500
N330        N  0.81520018  0.00919346  0.15428479    -0.35300
C331        C  0.82077223  0.02889937  0.16992776     0.00900
C332        C  0.79689098  0.06643977  0.16991431     0.06900
C333        C  0.77687835  0.06741364  0.15363706    -0.06200
H334        H  0.83909713  0.01570972  0.18075323     0.07600
H335        H  0.75423529  0.09120080  0.14897462     0.08800
Cu336      Cu  0.83955570  0.95039760  0.14620188     0.44200
Cu337      Cu  0.76697235  0.01365805  0.11990408     0.42000
Cu338      Cu  0.79526098  0.90786808  0.10498017     0.43900
N339        N  0.86137418  0.89513594  0.13381906    -0.34800
N340        N  0.84642503  0.88080088  0.11856120    -0.29100
C341        C  0.87039485  0.84721300  0.11331576    -0.05200
C342        C  0.90140879  0.83974975  0.12597905     0.07000
C343        C  0.89468140  0.87045279  0.13884846     0.00800
H344        H  0.86576107  0.82974188  0.10111300     0.08500
H345        H  0.91373451  0.87568951  0.15060159     0.07500
N346        N  0.74689059  0.94411311  0.09347008    -0.36300
N347        N  0.73831547  0.98382351  0.09852075    -0.28500
C348        C  0.70564167  0.99914852  0.08884418    -0.03700
C349        C  0.69193444  0.96717604  0.07740356     0.04900
C350        C  0.71940874  0.93290988  0.08051310     0.03000
H351        H  0.69320438  0.03136593  0.09013292     0.08100
H352        H  0.71879887  0.90179169  0.07412123     0.06900
N353        N  0.71922209  0.52912461  0.10139012    -0.27500
N354        N  0.73579529  0.56367532  0.09377292    -0.35300
C355        C  0.71226943  0.57333104  0.07942618     0.00900
C356        C  0.67944063  0.54330098  0.07805106     0.06900
C357        C  0.68506242  0.51561421  0.09207251    -0.06200
H358        H  0.71968754  0.59907474  0.07030863     0.07600
H359        H  0.66610782  0.48728912  0.09512559     0.08800
Cu360      Cu  0.79111889  0.59392623  0.10274098     0.44200
Cu361      Cu  0.74356162  0.50084613  0.12382693     0.42000
Cu362      Cu  0.83368226  0.55159879  0.14429783     0.43900
N363        N  0.84581212  0.61716430  0.11518659    -0.34800
N364        N  0.85984175  0.60292281  0.13058030    -0.29100
C365        C  0.89440737  0.62609824  0.13543833    -0.05200
C366        C  0.90293576  0.65581855  0.12237762     0.07000
C367        C  0.87167739  0.64932807  0.10969190     0.00800
H368        H  0.91220203  0.62139162  0.14754429     0.08500
H369        H  0.86729927  0.66735959  0.09762290     0.07500
N370        N  0.80467407  0.49689860  0.15437615    -0.36300
N371        N  0.77109377  0.47849362  0.14675798    -0.28500
C372        C  0.75844019  0.44457393  0.15642962    -0.03700
C373        C  0.78575292  0.44114715  0.17069349     0.04900
C374        C  0.81466682  0.47487506  0.16908008     0.03000
H375        H  0.73118263  0.42411018  0.15337433     0.08100
H376        H  0.84023874  0.48345879  0.17811423     0.06900
N377        N  0.20967060  0.46787601  0.14376388    -0.27500
N378        N  0.18191083  0.49116402  0.15285498    -0.35300
C379        C  0.17619819  0.47292385  0.16882453     0.00900
C380        C  0.20219979  0.43683926  0.16980807     0.06900
C381        C  0.22253809  0.43442694  0.15361146    -0.06200
H382        H  0.15548109  0.48547959  0.17907775     0.07600
H383        H  0.24510086  0.41020025  0.14926337     0.08800
Cu384      Cu  0.15478601  0.54691055  0.14257121     0.44200
Cu385      Cu  0.23030110  0.48387698  0.11873186     0.42000
Cu386      Cu  0.18258742  0.57538985  0.09676242     0.43900
N387        N  0.12896258  0.59853241  0.12871503    -0.34800
N388        N  0.13739450  0.60774592  0.11200699    -0.29100
C389        C  0.11317111  0.64151899  0.10707530    -0.05200
C390        C  0.08881867  0.65440779  0.12142016     0.07000
C391        C  0.09968823  0.62655613  0.13488112     0.00800
H392        H  0.11343871  0.65571721  0.09404224     0.08500
H393        H  0.08649012  0.62599651  0.14809830     0.07500
N394        N  0.23358007  0.54035438  0.08642158    -0.36300
N395        N  0.25067489  0.50703511  0.09462411    -0.28500
C396        C  0.28464261  0.49284165  0.08537505    -0.03700
C397        C  0.28900172  0.51802293  0.07047169     0.04900
C398        C  0.25641383  0.54822901  0.07164649     0.03000
H399        H  0.30584337  0.46748183  0.08973441     0.08100
H400        H  0.25037512  0.57452550  0.06264860     0.06900
N401        N  0.22053415  0.96849830  0.39586031    -0.27500
N402        N  0.24525422  0.94380582  0.40576438    -0.35300
C403        C  0.22663405  0.93933519  0.42173695     0.00900
C404        C  0.18840255  0.96226933  0.42178716     0.06900
C405        C  0.18546258  0.98002803  0.40513535    -0.06200
H406        H  0.23979422  0.92057253  0.43245066     0.07600
H407        H  0.16025964  0.00085625  0.40027935     0.08800
Cu408      Cu  0.30273203  0.91708604  0.39658869     0.44200
Cu409      Cu  0.23744242  0.98867252  0.37077973     0.42000
Cu410      Cu  0.33461467  0.94673583  0.35149651     0.43900
N411        N  0.35467165  0.89008463  0.38302207    -0.34800
N412        N  0.36482658  0.89951203  0.36649159    -0.29100
C413        C  0.39785614  0.87448902  0.36136166    -0.05200
C414        C  0.40945218  0.84843345  0.37534411     0.07000
C415        C  0.38150230  0.85924048  0.38887834     0.00800
H416        H  0.41252104  0.87538357  0.34840617     0.08500
H417        H  0.38003874  0.84496640  0.40188362     0.07500
N418        N  0.30061599  0.99802927  0.34073245    -0.36300
N419        N  0.26477638  0.01277310  0.34790638    -0.28500
C420        C  0.25099180  0.04673213  0.33859931    -0.03700
C421        C  0.27957030  0.05428010  0.32490498     0.04900
C422        C  0.31055699  0.02239253  0.32656853     0.03000
H423        H  0.22253108  0.06518909  0.34177886     0.08100
H424        H  0.33788440  0.01668113  0.31805627     0.06900
N425        N  0.77405731  0.98253167  0.40033733    -0.27500
N426        N  0.75368338  0.95116216  0.40868149    -0.35300
C427        C  0.77446179  0.94272523  0.42386439     0.00900
C428        C  0.80978869  0.97001600  0.42502016     0.06900
C429        C  0.80819276  0.99496818  0.40993942    -0.06200
H430        H  0.76379106  0.91934346  0.43348426     0.07600
H431        H  0.83027765  0.02041630  0.40621978     0.08800
Cu432      Cu  0.69892019  0.92148564  0.39868044     0.44200
Cu433      Cu  0.75459807  0.00764812  0.37642136     0.42000
Cu434      Cu  0.66581709  0.95541410  0.35456968     0.43900
N435        N  0.64918489  0.89324966  0.38447623    -0.34800
N436        N  0.63849013  0.90429377  0.36820955    -0.29100
C437        C  0.60681754  0.87811129  0.36253216    -0.05200
C438        C  0.59682763  0.84964685  0.37593460     0.07000
C439        C  0.62412064  0.86019784  0.38966426     0.00800
H440        H  0.59172199  0.88014412  0.34970345     0.08500
H441        H  0.62612451  0.84458229  0.40239115     0.07500
N442        N  0.69652446  0.00966807  0.34469202    -0.36300
N443        N  0.72919887  0.02856357  0.35276706    -0.28500
C444        C  0.74234058  0.06245461  0.34316642    -0.03700
C445        C  0.71640302  0.06543971  0.32841179     0.04900
C446        C  0.68788248  0.03118813  0.32971566     0.03000
H447        H  0.76890487  0.08341171  0.34666420     0.08100
H448        H  0.66355563  0.02168342  0.32028701     0.06900
N449        N  0.77641278  0.53024288  0.39562306    -0.27500
N450        N  0.75373834  0.55705058  0.40541257    -0.35300
C451        C  0.77400506  0.56253015  0.42095601     0.00900
C452        C  0.81148062  0.53822515  0.42078925     0.06900
C453        C  0.81157860  0.51800252  0.40454595    -0.06200
H454        H  0.76154179  0.58175590  0.43166335     0.07600
H455        H  0.83545587  0.49579249  0.39957583     0.08800
Cu456      Cu  0.69698424  0.58510558  0.39648809     0.44200
Cu457      Cu  0.75807465  0.51010894  0.37088494     0.42000
Cu458      Cu  0.66487276  0.55750577  0.35101626     0.43900
N459        N  0.64709121  0.61462351  0.38275106    -0.34800
N460        N  0.63687689  0.60601193  0.36616035    -0.29100
C461        C  0.60580508  0.63330125  0.36096540    -0.05200
C462        C  0.59567439  0.66001596  0.37495851     0.07000
C463        C  0.62226587  0.64713284  0.38857701     0.00800
H464        H  0.59145737  0.63350040  0.34796566     0.08500
H465        H  0.62423751  0.66108243  0.40163065     0.07500
N466        N  0.69884701  0.50693411  0.33956558    -0.36300
N467        N  0.73338369  0.49028830  0.34705155    -0.28500
C468        C  0.74817523  0.45786170  0.33710941    -0.03700
C469        C  0.72211332  0.45398092  0.32246055     0.04900
C470        C  0.69067819  0.48519929  0.32453418     0.03000
H471        H  0.77500125  0.43758018  0.34069980     0.08100
H472        H  0.66380508  0.49142429  0.31583982     0.06900
N473        N  0.24215878  0.52184752  0.40203063    -0.27500
N474        N  0.25980315  0.55591553  0.40952376    -0.35300
C475        C  0.23740274  0.56584148  0.42416116     0.00900
C476        C  0.20424508  0.53616321  0.42599799     0.06900
C477        C  0.20826603  0.50892604  0.41167057    -0.06200
H478        H  0.24341299  0.59401443  0.43214261     0.07600
H479        H  0.18716280  0.48249911  0.40816270     0.08800
Cu480      Cu  0.31090592  0.58863588  0.39824490     0.44200
Cu481      Cu  0.26151852  0.49784614  0.37801726     0.42000
Cu482      Cu  0.34202935  0.55609897  0.35330598     0.43900
N483        N  0.35905854  0.61751535  0.38352940    -0.34800
N484        N  0.36933390  0.60706243  0.36712958    -0.29100
C485        C  0.40085701  0.63353240  0.36148588    -0.05200
C486        C  0.41105123  0.66144580  0.37505580     0.07000
C487        C  0.38412541  0.65035369  0.38882160     0.00800
H488        H  0.41580131  0.63197342  0.34859634     0.08500
H489        H  0.38252352  0.66528620  0.40170214     0.07500
N490        N  0.31081623  0.50156681  0.34383477    -0.36300
N491        N  0.28123947  0.48073163  0.35307005    -0.28500
C492        C  0.26633456  0.44746076  0.34359064    -0.03700
C493        C  0.28787775  0.44679178  0.32766942     0.04900
C494        C  0.31577586  0.48170770  0.32817105     0.03000
H495        H  0.24167657  0.42523581  0.34800888     0.08100
H496        H  0.33730716  0.49250291  0.31784286     0.06900
O497        O  0.95187922  0.70088301  0.13745975    -0.73100
O498        O  0.04152944  0.79327981  0.13962121    -0.74100
O499        O  0.95075223  0.79209098  0.13963683    -0.62700
O500        O  0.04265358  0.70159996  0.13716122    -0.71100
O501        O  0.04240118  0.70541486  0.10791069    -0.70700
O502        O  0.95004801  0.79526526  0.11036027    -0.61900
O503        O  0.04205238  0.79668290  0.11035397    -0.74400
O504        O  0.95046662  0.70498162  0.10820406    -0.73200
Cu505      Cu  0.99679022  0.74680175  0.13947701     1.04600
Cu506      Cu  0.99634171  0.75078046  0.10816184     1.04300
C507        C  0.93672369  0.68871096  0.12263279     0.93100
C508        C  0.05578627  0.80970882  0.12533599     0.92200
C509        C  0.93569326  0.80755686  0.12531937     0.84400
C510        C  0.05663717  0.68892066  0.12217784     0.90600
O511        O  0.45830812  0.80142325  0.36083546    -0.73100
O512        O  0.54946249  0.70974697  0.36061016    -0.74100
O513        O  0.45864845  0.70965054  0.36049308    -0.62700
O514        O  0.54949708  0.80183326  0.36099683    -0.71100
O515        O  0.54968208  0.80063600  0.39028989    -0.70700
O516        O  0.45785943  0.70974228  0.38979684    -0.61900
O517        O  0.54955206  0.70926534  0.38989421    -0.74400
O518        O  0.45755455  0.80080859  0.39011532    -0.73200
Cu519      Cu  0.50403874  0.75573219  0.35971694     1.04600
Cu520      Cu  0.50369223  0.75513217  0.39105519     1.04300
C521        C  0.44338203  0.81538417  0.37546730     0.93100
C522        C  0.56350504  0.69472118  0.37518568     0.92200
C523        C  0.44403675  0.69520711  0.37509622     0.84400
C524        C  0.56384634  0.81574620  0.37572384     0.90600
O525        O  0.54830503  0.20877525  0.64097505    -0.73100
O526        O  0.45718246  0.30021402  0.64021314    -0.74100
O527        O  0.45705165  0.20825180  0.64139150    -0.62700
O528        O  0.54847592  0.30050355  0.63982998    -0.71100
O529        O  0.54807548  0.29791439  0.61055472    -0.70700
O530        O  0.45588028  0.20716786  0.61210660    -0.61900
O531        O  0.45625056  0.29805079  0.61093581    -0.74400
O532        O  0.54791246  0.20723840  0.61168392    -0.73200
Cu533      Cu  0.50275552  0.25452320  0.64164270     1.04600
Cu534      Cu  0.50199097  0.25249104  0.61031158     1.04300
C535        C  0.56260030  0.19382897  0.62640892     0.93100
C536        C  0.44238940  0.31351024  0.62547486     0.92200
C537        C  0.44202993  0.19331927  0.62693841     0.84400
C538        C  0.56276410  0.31351664  0.62493069     0.90600
O539        O  0.94727041  0.20129161  0.86133015    -0.73100
O540        O  0.03961362  0.29247600  0.86008405    -0.74100
O541        O  0.03880518  0.20010706  0.86096726    -0.62700
O542        O  0.94861156  0.29338333  0.86057925    -0.71100
O543        O  0.94913387  0.29439347  0.88986362    -0.70700
O544        O  0.03937272  0.20175818  0.89023416    -0.61900
O545        O  0.04100559  0.29302550  0.88936465    -0.74400
O546        O  0.94691540  0.20329370  0.89060338    -0.73200
Cu547      Cu  0.99354215  0.24669905  0.85971797     1.04600
Cu548      Cu  0.99413150  0.24812209  0.89103435     1.04300
C549        C  0.93232050  0.18818800  0.87610387     0.93100
C550        C  0.05471691  0.30720443  0.87454785     0.92200
C551        C  0.05341253  0.18639901  0.87568884     0.84400
C552        C  0.93494984  0.30869885  0.87519472     0.90600
C553        C  0.17177867  0.38629933  0.19195980    -0.20500
C554        C  0.20790862  0.40739039  0.18495811    -0.07000
C555        C  0.24889385  0.39956497  0.19231578     0.13800
C556        C  0.25294547  0.36970314  0.20607957    -0.20500
C557        C  0.21714778  0.34713257  0.21281097    -0.07000
C558        C  0.17570596  0.35607924  0.20569207     0.13800
C559        C  0.13545727  0.33345696  0.21199250    -0.23900
H560        H  0.14038742  0.39276164  0.18631407     0.15100
H561        H  0.28459747  0.36391979  0.21157930     0.15100
C562        C  0.28839926  0.42357144  0.18609456    -0.23800
H563        H  0.10655113  0.34360199  0.20446299     0.05300
H564        H  0.12944935  0.34121692  0.22607096     0.08600
H565        H  0.13891018  0.29816121  0.21027212     0.08600
H566        H  0.28290592  0.45876115  0.18711660     0.08600
H567        H  0.29589210  0.41501871  0.17224280     0.08600
H568        H  0.31716835  0.41562769  0.19413664     0.05300
C569        C  0.25811381  0.13128598  0.21170044    -0.20500
C570        C  0.22179594  0.15671581  0.21536085    -0.07000
C571        C  0.18214434  0.14647052  0.20703272     0.13800
C572        C  0.18030183  0.11165884  0.19519188    -0.20500
C573        C  0.21697973  0.08724565  0.19126660    -0.07000
C574        C  0.25626602  0.09680562  0.19981799     0.13800
C575        C  0.29607923  0.06997920  0.19696113    -0.23900
H576        H  0.28835200  0.13827117  0.21825533     0.15100
H577        H  0.15029419  0.10416265  0.18854947     0.15100
C578        C  0.14199665  0.17266435  0.20997558    -0.23800
H579        H  0.32288655  0.08017043  0.20572832     0.05300
H580        H  0.30765384  0.07321732  0.18319968     0.08600
H581        H  0.28877580  0.03568803  0.19981508     0.08600
H582        H  0.14836308  0.20689666  0.20664727     0.08600
H583        H  0.13144805  0.16992486  0.22392118     0.08600
H584        H  0.11488731  0.16135373  0.20160281     0.05300
C585        C  0.30373697  0.35912254  0.29340743    -0.20500
C586        C  0.26095904  0.35121204  0.28805816    -0.07000
C587        C  0.22751124  0.37673165  0.29537413     0.13800
C588        C  0.23779111  0.40835774  0.30790480    -0.20500
C589        C  0.28035498  0.41569621  0.31326766    -0.07000
C590        C  0.31382249  0.39088395  0.30591852     0.13800
C591        C  0.35989961  0.39630483  0.31179334    -0.23900
H592        H  0.32958932  0.33981704  0.28800913     0.15100
H593        H  0.21228001  0.42750938  0.31368788     0.15100
C594        C  0.18093744  0.37160819  0.29009243    -0.23800
H595        H  0.38151056  0.37253059  0.30539878     0.05300
H596        H  0.36214799  0.39176583  0.32628975     0.08600
H597        H  0.37179164  0.42883808  0.30824040     0.08600
H598        H  0.16890648  0.33934194  0.29402806     0.08600
H599        H  0.17760912  0.37599958  0.27562469     0.08600
H600        H  0.15996474  0.39574640  0.29661938     0.05300
C601        C  0.23381142  0.09645810  0.30476467    -0.20500
C602        C  0.27517758  0.08858594  0.31136697    -0.07000
C603        C  0.30962618  0.11553640  0.30598448     0.13800
C604        C  0.30152759  0.14966297  0.29423033    -0.20500
C605        C  0.25984821  0.15796641  0.28778538    -0.07000
C606        C  0.22553904  0.13044066  0.29311054     0.13800
C607        C  0.18001060  0.13564862  0.28648985    -0.23900
H608        H  0.20747287  0.07571433  0.30884681     0.15100
H609        H  0.32795478  0.17037721  0.29024220     0.15100
C610        C  0.35455230  0.10987658  0.31308552    -0.23800
H611        H  0.15832791  0.10976816  0.29139937     0.05300
H612        H  0.17956698  0.13430209  0.27185418     0.08600
H613        H  0.16651623  0.16663488  0.29117057     0.08600
H614        H  0.36817876  0.07904373  0.30838649     0.08600
H615        H  0.35396441  0.11045056  0.32772705     0.08600
H616        H  0.37652998  0.13592053  0.30855721     0.05300
C617        C  0.58361623  0.99081141  0.05594004    -0.20500
C618        C  0.58986307  0.97400658  0.03900537    -0.07000
C619        C  0.62873128  0.95260561  0.03499264     0.13800
C620        C  0.66128297  0.95050200  0.04785605    -0.20500
C621        C  0.65570504  0.96892813  0.06464839    -0.07000
C622        C  0.61554296  0.98790033  0.06892555     0.13800
C623        C  0.60490315  0.00353615  0.08725034    -0.23900
H624        H  0.55338561  0.00645978  0.05902435     0.15100
H625        H  0.69162937  0.93521495  0.04464810     0.15100
C626        C  0.63661013  0.93341307  0.01702970    -0.23800
H627        H  0.57007012  0.01091922  0.08865812     0.05300
H628        H  0.62259807  0.03362540  0.09020944     0.08600
H629        H  0.61283137  0.97836510  0.09710099     0.08600
H630        H  0.63356036  0.95859716  0.00674239     0.08600
H631        H  0.61281124  0.90743631  0.01445965     0.08600
H632        H  0.66932351  0.91926711  0.01597288     0.05300
C633        C  0.37895576  0.97283347  0.07097336    -0.20500
C634        C  0.33590295  0.96818587  0.06555381    -0.07000
C635        C  0.32607874  0.96847190  0.04731280     0.13800
C636        C  0.35966954  0.97301214  0.03503147    -0.20500
C637        C  0.40239520  0.97797743  0.04055581    -0.07000
C638        C  0.41233203  0.97780851  0.05866469     0.13800
C639        C  0.45811548  0.98272174  0.06494963    -0.23900
H640        H  0.38650477  0.97270416  0.08492611     0.15100
H641        H  0.35252738  0.97367771  0.02103870     0.15100
C642        C  0.28038658  0.96638488  0.04065368    -0.23800
H643        H  0.46034495  0.98128639  0.07955793     0.05300
H644        H  0.47124293  0.01422673  0.06057328     0.08600
H645        H  0.47822475  0.95651027  0.05939859     0.08600
H646        H  0.26081459  0.99194647  0.04698019     0.08600
H647        H  0.26614786  0.93441021  0.04348014     0.08600
H648        H  0.27879006  0.97119405  0.02615180     0.05300
C649        C  0.65832250  0.04037405  0.95491176    -0.20500
C650        C  0.65185932  0.02165294  0.93822817    -0.07000
C651        C  0.61163072  0.00164872  0.93456714     0.13800
C652        C  0.58040347  0.99888262  0.94792065    -0.20500
C653        C  0.58736242  0.01673926  0.96462564    -0.07000
C654        C  0.62650928  0.03845846  0.96810926     0.13800
C655        C  0.63547906  0.05847936  0.98584544    -0.23900
H656        H  0.68874382  0.05611532  0.95775176     0.15100
H657        H  0.54998006  0.98288749  0.94525799     0.15100
C658        C  0.59999989  0.98478141  0.91653797    -0.23800
H659        H  0.66842097  0.07246971  0.98650236     0.05300
H660        H  0.63258448  0.03382788  0.99636825     0.08600
H661        H  0.61223261  0.08478696  0.98841282     0.08600
H662        H  0.61716724  0.95434616  0.91385286     0.08600
H663        H  0.60768805  0.00917866  0.90630205     0.08600
H664        H  0.56503045  0.97743257  0.91552482     0.05300
C665        C  0.35685342  0.06485117  0.94568175    -0.20500
C666        C  0.32983245  0.02991657  0.94175822    -0.07000
C667        C  0.33441066  0.99118419  0.95126248     0.13800
C668        C  0.36749962  0.98747763  0.96374668    -0.20500
C669        C  0.39618371  0.02160744  0.96715497    -0.07000
C670        C  0.39005599  0.06129269  0.95823588     0.13800
C671        C  0.41913360  0.09952314  0.96126266    -0.23900
H672        H  0.35285711  0.09462107  0.93843075     0.15100
H673        H  0.37105473  0.95746303  0.97086156     0.15100
C674        C  0.30382194  0.95397550  0.94857257    -0.23800
H675        H  0.41071342  0.12694017  0.95254676     0.05300
H676        H  0.45308592  0.09061100  0.95848023     0.08600
H677        H  0.41601679  0.11080672  0.97509238     0.08600
H678        H  0.30664259  0.94140434  0.93494066     0.08600
H679        H  0.27023417  0.96472364  0.95096571     0.08600
H680        H  0.31069667  0.92702616  0.95775208     0.05300
C681        C  0.80698191  0.34843523  0.20187379    -0.20500
C682        C  0.76794052  0.34679313  0.21130055    -0.07000
C683        C  0.73610297  0.37835232  0.20802854     0.13800
C684        C  0.74334802  0.40917466  0.19485664    -0.20500
C685        C  0.78179749  0.40994197  0.18518897    -0.07000
C686        C  0.81428883  0.37967037  0.18883987     0.13800
C687        C  0.85588586  0.37922183  0.17856950    -0.23900
H688        H  0.83158111  0.32460077  0.20445482     0.15100
H689        H  0.71881443  0.43293846  0.19204475     0.15100
C690        C  0.69503792  0.38080661  0.21864354    -0.23800
H691        H  0.87717744  0.35248312  0.18276739     0.05300
H692        H  0.87360314  0.40985906  0.18065560     0.08600
H693        H  0.84898444  0.37517346  0.16429778     0.08600
H694        H  0.70276994  0.38295023  0.23291859     0.08600
H695        H  0.67467709  0.35207820  0.21610260     0.08600
H696        H  0.67569740  0.40953350  0.21511696     0.05300
C697        C  0.81410143  0.14703907  0.20703084    -0.20500
C698        C  0.77133830  0.15786253  0.21140996    -0.07000
C699        C  0.73716807  0.13677848  0.20231794     0.13800
C700        C  0.74689370  0.10678361  0.18907208    -0.20500
C701        C  0.78948855  0.09662586  0.18468266    -0.07000
C702        C  0.82357999  0.11681615  0.19381991     0.13800
C703        C  0.86998644  0.10816674  0.18917969    -0.23900
H704        H  0.84054805  0.16279407  0.21378044     0.15100
H705        H  0.72090869  0.09099308  0.18201517     0.15100
C706        C  0.69026970  0.14512204  0.20627410    -0.23800
H707        H  0.89238810  0.12876582  0.19689867     0.05300
H708        H  0.87554653  0.11482862  0.17496737     0.08600
H709        H  0.87807389  0.07421439  0.19208811     0.08600
H710        H  0.68223026  0.17907941  0.20323764     0.08600
H711        H  0.68334471  0.13791071  0.22034085     0.08600
H712        H  0.66858055  0.12457805  0.19819445     0.05300
C713        C  0.76714078  0.37843434  0.28777943    -0.20500
C714        C  0.73167947  0.35133024  0.28453559    -0.07000
C715        C  0.69184812  0.36036306  0.29300052     0.13800
C716        C  0.68938926  0.39496808  0.30491611    -0.20500
C717        C  0.72544954  0.42070098  0.30859724    -0.07000
C718        C  0.76450209  0.41305760  0.29955565     0.13800
C719        C  0.80311854  0.44218941  0.30171971    -0.23900
H720        H  0.79729817  0.37269560  0.28096226     0.15100
H721        H  0.65941487  0.40130160  0.31178715     0.15100
C722        C  0.65207560  0.33331130  0.29005921    -0.23800
H723        H  0.82957819  0.43345664  0.29252436     0.05300
H724        H  0.81611248  0.43984981  0.31527412     0.08600
H725        H  0.79381974  0.47596129  0.29892563     0.08600
H726        H  0.65885858  0.29921421  0.29337532     0.08600
H727        H  0.64158044  0.33589951  0.27611446     0.08600
H728        H  0.62473836  0.34402225  0.29843178     0.05300
C729        C  0.76271779  0.10426293  0.30721211    -0.20500
C730        C  0.72126014  0.09690477  0.31390478    -0.07000
C731        C  0.68640494  0.12117589  0.30734800     0.13800
C732        C  0.69400313  0.15200061  0.29414865    -0.20500
C733        C  0.73562647  0.15967459  0.28741244    -0.07000
C734        C  0.77052850  0.13510298  0.29408056     0.13800
C735        C  0.81612211  0.14030756  0.28745047    -0.23900
H736        H  0.78932804  0.08557533  0.31234261     0.15100
H737        H  0.66718274  0.17078472  0.28929148     0.15100
C738        C  0.64155275  0.11632108  0.31475263    -0.23800
H739        H  0.83836319  0.11679853  0.29361466     0.05300
H740        H  0.82843254  0.17290233  0.29072759     0.08600
H741        H  0.81720648  0.13503279  0.27297095     0.08600
H742        H  0.64208698  0.12138063  0.32924975     0.08600
H743        H  0.62868247  0.08385147  0.31175851     0.08600
H744        H  0.61898625  0.14008354  0.30896531     0.05300
C745        C  0.37063283  0.47673864  0.03730351    -0.20500
C746        C  0.39455815  0.51416773  0.03359960    -0.07000
C747        C  0.38217142  0.55349222  0.04164942     0.13800
C748        C  0.34702982  0.55378910  0.05336558    -0.20500
C749        C  0.32413158  0.51604113  0.05733207    -0.07000
C750        C  0.33559053  0.47715695  0.04895278     0.13800
C751        C  0.31005417  0.43628100  0.05162337    -0.23900
H752        H  0.37914455  0.44674690  0.03091886     0.15100
H753        H  0.33788017  0.58355828  0.05978727     0.15100
C754        C  0.40609127  0.59508345  0.03844320    -0.23800
H755        H  0.32141301  0.41004974  0.04283937     0.05300
H756        H  0.27555519  0.44211457  0.04863979     0.08600
H757        H  0.31338110  0.42470445  0.06535886     0.08600
H758        H  0.40308035  0.60464072  0.02439856     0.08600
H759        H  0.44058335  0.59123549  0.04195517     0.08600
H760        H  0.39297503  0.62183047  0.04652561     0.05300
C761        C  0.64713685  0.49795416  0.05497383    -0.20500
C762        C  0.64830487  0.53774221  0.06359522    -0.07000
C763        C  0.61875100  0.57008521  0.05886890     0.13800
C764        C  0.58827775  0.56154445  0.04565250    -0.20500
C765        C  0.58649347  0.52135975  0.03714405    -0.07000
C766        C  0.61693141  0.48929782  0.04172913     0.13800
C767        C  0.61887510  0.44625530  0.03255543    -0.23900
H768        H  0.67020272  0.47343657  0.05865365     0.15100
H769        H  0.56515091  0.58617237  0.04219957     0.15100
C770        C  0.61804299  0.61285562  0.06821493    -0.23800
H771        H  0.64674214  0.42684512  0.03706645     0.05300
H772        H  0.62232521  0.45102225  0.01810344     0.08600
H773        H  0.58934366  0.42729916  0.03544733     0.08600
H774        H  0.64882130  0.63022985  0.06594854     0.08600
H775        H  0.61331141  0.60779181  0.08258700     0.08600
H776        H  0.59152906  0.63363203  0.06337980     0.05300
C777        C  0.39733763  0.43520827  0.95466278    -0.20500
C778        C  0.40533674  0.47830603  0.95949427    -0.07000
C779        C  0.38162621  0.51139037  0.95100406     0.13800
C780        C  0.35171282  0.50036312  0.93788232    -0.20500
C781        C  0.34421833  0.45744652  0.93313647    -0.07000
C782        C  0.36718642  0.42442040  0.94161777     0.13800
C783        C  0.36136748  0.37794867  0.93644230    -0.23900
H784        H  0.41517446  0.40956579  0.96095072     0.15100
H785        H  0.33387609  0.52549210  0.93122621     0.15100
C786        C  0.38688275  0.55833725  0.95559805    -0.23800
H787        H  0.38334103  0.35648276  0.94388543     0.05300
H788        H  0.36831071  0.37394313  0.92216454     0.08600
H789        H  0.32786142  0.36744268  0.93922573     0.08600
H790        H  0.42014268  0.56919559  0.95248813     0.08600
H791        H  0.37979351  0.56341194  0.96980588     0.08600
H792        H  0.36454062  0.57902378  0.94796570     0.05300
C793        C  0.60161560  0.44710429  0.95494399    -0.20500
C794        C  0.59632904  0.48675421  0.96359687    -0.07000
C795        C  0.62638517  0.52035378  0.96034929     0.13800
C796        C  0.65928044  0.51401360  0.94792395    -0.20500
C797        C  0.66368189  0.47482704  0.93901867    -0.07000
C798        C  0.63493702  0.44072361  0.94270098     0.13800
C799        C  0.63816702  0.39823759  0.93322682    -0.23900
H800        H  0.57896920  0.42119277  0.95747266     0.15100
H801        H  0.68177538  0.53988252  0.94507355     0.15100
C802        C  0.62502635  0.56253897  0.97017392    -0.23800
H803        H  0.61197495  0.37578426  0.93719842     0.05300
H804        H  0.66931079  0.38265813  0.93636586     0.08600
H805        H  0.63585218  0.40339061  0.91876796     0.08600
H806        H  0.62569986  0.55651961  0.98461250     0.08600
H807        H  0.59554586  0.58061561  0.96662421     0.08600
H808        H  0.65306572  0.58336246  0.96687475     0.05300
C809        C  0.89629809  0.94697121  0.45930767    -0.20500
C810        C  0.90684381  0.98886980  0.46497981    -0.07000
C811        C  0.88336593  0.02405533  0.45795040     0.13800
C812        C  0.85132109  0.01632937  0.44529986    -0.20500
C813        C  0.84145490  0.97465221  0.43949940    -0.07000
C814        C  0.86401819  0.93939924  0.44668907     0.13800
C815        C  0.85576521  0.89396063  0.44059286    -0.23900
H816        H  0.91393249  0.91981662  0.46454509     0.15100
H817        H  0.83376502  0.04323971  0.43978744     0.15100
C818        C  0.89106662  0.06992775  0.46367062    -0.23800
H819        H  0.87852114  0.87087149  0.44670503     0.05300
H820        H  0.85968646  0.89186185  0.42605956     0.08600
H821        H  0.82276927  0.88376300  0.44435681     0.08600
H822        H  0.92398785  0.08035767  0.45980940     0.08600
H823        H  0.88682087  0.07273496  0.47817064     0.08600
H824        H  0.86811660  0.09253047  0.45737378     0.05300
C825        C  0.88258682  0.99074352  0.54311228    -0.20500
C826        C  0.91022316  0.02551146  0.53933654    -0.07000
C827        C  0.90342910  0.06523826  0.54816442     0.13800
C828        C  0.87000445  0.06853749  0.56066903    -0.20500
C829        C  0.84342885  0.03330404  0.56467369    -0.07000
C830        C  0.84930478  0.99414538  0.55555787     0.13800
C831        C  0.81964484  0.95622436  0.55841795    -0.23900
H832        H  0.88679615  0.96057158  0.53616536     0.15100
H833        H  0.86513817  0.09854686  0.56767102     0.15100
C834        C  0.93176844  0.10395154  0.54498476    -0.23800
H835        H  0.82707582  0.92932975  0.54927218     0.05300
H836        H  0.78575826  0.96605002  0.55610824     0.08600
H837        H  0.82300050  0.94377790  0.57203397     0.08600
H838        H  0.92818715  0.11516676  0.53117456     0.08600
H839        H  0.96589605  0.09562254  0.54761280     0.08600
H840        H  0.92307549  0.13124415  0.55373842     0.05300
C841        C  0.13234343  0.98391019  0.53920774    -0.20500
C842        C  0.10298622  0.01801938  0.53784319    -0.07000
C843        C  0.10904818  0.05498632  0.54853161     0.13800
C844        C  0.14385909  0.05642466  0.56037296    -0.20500
C845        C  0.17260311  0.02192087  0.56191703    -0.07000
C846        C  0.16717544  0.98546877  0.55097450     0.13800
C847        C  0.19891319  0.94886288  0.55105306    -0.23900
H848        H  0.12832120  0.95593803  0.53081951     0.15100
H849        H  0.14818585  0.08433955  0.56876860     0.15100
C850        C  0.07826131  0.09235090  0.54808177    -0.23800
H851        H  0.19154343  0.92482695  0.54063115     0.05300
H852        H  0.19792463  0.93179935  0.56386525     0.08600
H853        H  0.23193373  0.96141576  0.54861974     0.08600
H854        H  0.04505480  0.08083610  0.55088225     0.08600
H855        H  0.07935983  0.10814331  0.53496897     0.08600
H856        H  0.08656589  0.11712328  0.55808940     0.05300
C857        C  0.13731175  0.99435907  0.46550103    -0.20500
C858        C  0.09462187  0.98094981  0.46291200    -0.07000
C859        C  0.08291547  0.96089848  0.44690766     0.13800
C860        C  0.11429071  0.95494230  0.43375025    -0.20500
C861        C  0.15721851  0.96776000  0.43640592    -0.07000
C862        C  0.16889779  0.98771024  0.45247741     0.13800
C863        C  0.21417902  0.00344799  0.45568046    -0.23900
H864        H  0.14592969  0.01001337  0.47778463     0.15100
H865        H  0.10534112  0.94014930  0.42133050     0.15100
C866        C  0.03711838  0.94684542  0.44355904    -0.23800
H867        H  0.21720935  0.01987732  0.46863339     0.05300
H868        H  0.22361835  0.02667526  0.44522885     0.08600
H869        H  0.23680272  0.97592382  0.45561696     0.08600
H870        H  0.01525923  0.97494984  0.44456059     0.08600
H871        H  0.02732546  0.92232979  0.45343988     0.08600
H872        H  0.03327872  0.93251344  0.43023032     0.05300
C873        C  0.13980862  0.53642029  0.46876490    -0.20500
C874        C  0.09863690  0.52672146  0.46234777    -0.07000
C875        C  0.09175569  0.52260359  0.44408293     0.13800
C876        C  0.12672551  0.52740544  0.43255378    -0.20500
C877        C  0.16845385  0.53582659  0.43889805    -0.07000
C878        C  0.17507512  0.54065712  0.45727060     0.13800
C879        C  0.21926634  0.54765453  0.46498581    -0.23900
H880        H  0.14460067  0.53910190  0.48288689     0.15100
H881        H  0.12152709  0.52402726  0.41849007     0.15100
C882        C  0.04754923  0.51318634  0.43679298    -0.23800
H883        H  0.21863102  0.54678909  0.47963184     0.05300
H884        H  0.23191673  0.57961644  0.46107431     0.08600
H885        H  0.24145514  0.52203793  0.46039254     0.08600
H886        H  0.02485613  0.53886720  0.44089170     0.08600
H887        H  0.03572544  0.48176899  0.44184312     0.08600
H888        H  0.04773890  0.51169381  0.42215477     0.05300
C889        C  0.11694778  0.44507489  0.53853720    -0.20500
C890        C  0.09751889  0.48569232  0.53672998    -0.07000
C891        C  0.11071542  0.51932439  0.54826883     0.13800
C892        C  0.14253796  0.51121930  0.56098032    -0.20500
C893        C  0.16169825  0.47064266  0.56275244    -0.07000
C894        C  0.14852396  0.43701867  0.55137103     0.13800
C895        C  0.16582240  0.39197770  0.55308007    -0.23900
H896        H  0.10716417  0.41902295  0.52991900     0.15100
H897        H  0.15248367  0.53695026  0.56974240     0.15100
C898        C  0.09143293  0.56379884  0.54770276    -0.23800
H899        H  0.14840505  0.36901949  0.54438917     0.05300
H900        H  0.16210570  0.38050100  0.56686781     0.08600
H901        H  0.20014814  0.39117487  0.54910567     0.08600
H902        H  0.05619820  0.56192005  0.55016899     0.08600
H903        H  0.09793124  0.57893174  0.53470371     0.08600
H904        H  0.10537814  0.58529326  0.55793251     0.05300
C905        C  0.86816700  0.46367755  0.52856901    -0.20500
C906        C  0.90956677  0.47369882  0.53464114    -0.07000
C907        C  0.91725654  0.47780669  0.55285673     0.13800
C908        C  0.88269373  0.47355303  0.56465538    -0.20500
C909        C  0.84062402  0.46529726  0.55864398    -0.07000
C910        C  0.83338096  0.45961088  0.54033611     0.13800
C911        C  0.78899978  0.45181144  0.53294559    -0.23900
H912        H  0.86279390  0.46063114  0.51448919     0.15100
H913        H  0.88845488  0.47734880  0.57867047     0.15100
C914        C  0.96192374  0.48664265  0.55979682    -0.23800
H915        H  0.78909493  0.45196789  0.51829301     0.05300
H916        H  0.76669518  0.47740068  0.53746390     0.08600
H917        H  0.77687560  0.41989115  0.53718561     0.08600
H918        H  0.97395281  0.51788863  0.55465171     0.08600
H919        H  0.98407245  0.46065194  0.55552208     0.08600
H920        H  0.96243636  0.48811913  0.57443240     0.05300
C921        C  0.89410392  0.55800790  0.45711557    -0.20500
C922        C  0.90941870  0.51605855  0.46021293    -0.07000
C923        C  0.89143397  0.48158209  0.45029759     0.13800
C924        C  0.85903598  0.49016595  0.43789730    -0.20500
C925        C  0.84381078  0.53196987  0.43495125    -0.07000
C926        C  0.86184037  0.56644551  0.44462395     0.13800
C927        C  0.84887893  0.61243947  0.44136079    -0.23900
H928        H  0.90769170  0.58475555  0.46441808     0.15100
H929        H  0.84534027  0.46380963  0.43037136     0.15100
C930        C  0.90573007  0.43555220  0.45245622    -0.23800
H931        H  0.86911923  0.63538836  0.44896862     0.05300
H932        H  0.81508229  0.61751625  0.44554305     0.08600
H933        H  0.85256898  0.62032309  0.42715368     0.08600
H934        H  0.89993096  0.42475402  0.46621534     0.08600
H935        H  0.94041194  0.43264085  0.44906916     0.08600
H936        H  0.88774818  0.41332193  0.44363721     0.05300
C937        C  0.26466981  0.66119593  0.69705584    -0.20500
C938        C  0.27437075  0.65166857  0.71463553    -0.07000
C939        C  0.28805672  0.60978336  0.71919122     0.13800
C940        C  0.28968791  0.57797529  0.70605931    -0.20500
C941        C  0.27807738  0.58697901  0.68854769    -0.07000
C942        C  0.26710176  0.62969100  0.68386667     0.13800
C943        C  0.26008271  0.64317680  0.66498593    -0.23900
H944        H  0.25534228  0.69371880  0.69361868     0.15100
H945        H  0.29909342  0.54557338  0.70963719     0.15100
C946        C  0.29988552  0.59703848  0.73774403    -0.23800
H947        H  0.25799641  0.67870636  0.66371196     0.05300
H948        H  0.22941943  0.62984459  0.65991882     0.08600
H949        H  0.28742383  0.63226218  0.65666797     0.08600
H950        H  0.27941350  0.56958433  0.74199415     0.08600
H951        H  0.29556334  0.62328794  0.74745422     0.08600
H952        H  0.33411515  0.58682332  0.73807876     0.05300
C953        C  0.25120742  0.65883184  0.80507887    -0.20500
C954        C  0.23652882  0.65291671  0.78780561    -0.07000
C955        C  0.21575295  0.61386161  0.78319814     0.13800
C956        C  0.21074098  0.58165451  0.79601896    -0.20500
C957        C  0.22651123  0.58699543  0.81322113    -0.07000
C958        C  0.24606482  0.62672914  0.81792783     0.13800
C959        C  0.25969727  0.63684632  0.83656216    -0.23900
H960        H  0.26643789  0.68909962  0.80858352     0.15100
H961        H  0.19552507  0.55149714  0.79235737     0.15100
C962        C  0.19992610  0.60406271  0.76482333    -0.23800
H963        H  0.26777096  0.67146601  0.83818845     0.05300
H964        H  0.28900456  0.61864445  0.84007671     0.08600
H965        H  0.23312637  0.62921611  0.84588588     0.08600
H966        H  0.21450636  0.57355129  0.76016350     0.08600
H967        H  0.20831963  0.62916801  0.75505163     0.08600
H968        H  0.16436588  0.60009932  0.76504139     0.05300
C969        C  0.26538054  0.90182682  0.80773063    -0.20500
C970        C  0.22315171  0.91104252  0.81313935    -0.07000
C971        C  0.18866853  0.88750382  0.80561817     0.13800
C972        C  0.19746043  0.85533165  0.79307934    -0.20500
C973        C  0.23981683  0.84555920  0.78776701    -0.07000
C974        C  0.27430447  0.86977281  0.79516637     0.13800
C975        C  0.32069562  0.86276692  0.78997084    -0.23900
H976        H  0.29178941  0.91992528  0.81346682     0.15100
H977        H  0.17079802  0.83719217  0.78758654     0.15100
C978        C  0.14263536  0.89448014  0.81125093    -0.23800
H979        H  0.34272430  0.88588950  0.79660121     0.05300
H980        H  0.32455934  0.86724451  0.77552348     0.08600
H981        H  0.33102120  0.82996892  0.79385008     0.08600
H982        H  0.13167589  0.92672633  0.80702499     0.08600
H983        H  0.13979167  0.89134474  0.82579377     0.08600
H984        H  0.12048385  0.87057609  0.80517766     0.05300
C985        C  0.25467034  0.88774681  0.68881666    -0.20500
C986        C  0.29732345  0.89923893  0.68495870    -0.07000
C987        C  0.33116614  0.87993281  0.69446540     0.13800
C988        C  0.32135054  0.85012358  0.70782083    -0.20500
C989        C  0.27850218  0.83864196  0.71191039    -0.07000
C990        C  0.24460878  0.85790145  0.70209061     0.13800
C991        C  0.19764085  0.84771179  0.70525449    -0.23900
H992        H  0.22886092  0.90251997  0.68137144     0.15100
H993        H  0.34760790  0.83539206  0.71498674     0.15100
C994        C  0.37769049  0.88908632  0.69009095    -0.23800
H995        H  0.17618001  0.86636030  0.69640828     0.05300
H996        H  0.18869205  0.85598537  0.71902301     0.08600
H997        H  0.19133626  0.81311242  0.70265181     0.08600
H998        H  0.38550034  0.92321251  0.69288881     0.08600
H999        H  0.38383295  0.88207351  0.67594803     0.08600
H1000       H  0.39989601  0.86899793  0.69804791     0.05300
C1001       C  0.80846551  0.64680983  0.79255203    -0.20500
C1002       C  0.76634627  0.65406905  0.78637520    -0.07000
C1003       C  0.73199807  0.62898468  0.79337917     0.13800
C1004       C  0.74077456  0.59837699  0.80643484    -0.20500
C1005       C  0.78264735  0.59174123  0.81269080    -0.07000
C1006       C  0.81702958  0.61613901  0.80565049     0.13800
C1007       C  0.86238943  0.61157103  0.81244520    -0.23900
H1008       H  0.83491315  0.66588883  0.78739029     0.15100
H1009       H  0.71457580  0.57945682  0.81192302     0.15100
C1010       C  0.68598272  0.63351943  0.78726414    -0.23800
H1011       H  0.88465475  0.63518238  0.80622487     0.05300
H1012       H  0.87477734  0.57899645  0.80944075     0.08600
H1013       H  0.86298446  0.61703743  0.82691640     0.08600
H1014       H  0.68410168  0.62836936  0.77279136     0.08600
H1015       H  0.67355788  0.66586220  0.79074446     0.08600
H1016       H  0.66431657  0.60957584  0.79362286     0.05300
C1017       C  0.76807904  0.63357491  0.70569174    -0.20500
C1018       C  0.73131068  0.65666444  0.71100419    -0.07000
C1019       C  0.69107298  0.64657309  0.70304870     0.13800
C1020       C  0.68917082  0.61463109  0.68993833    -0.20500
C1021       C  0.72617417  0.59277013  0.68441049    -0.07000
C1022       C  0.76599341  0.60177114  0.69257966     0.13800
C1023       C  0.80607374  0.57690992  0.68795715    -0.23900
H1024       H  0.79881828  0.64022469  0.71189776     0.15100
H1025       H  0.65866967  0.60721713  0.68365999     0.15100
C1026       C  0.65005772  0.66969606  0.70781950    -0.23800
H1027       H  0.83386773  0.58655484  0.69629979     0.05300
H1028       H  0.81516292  0.58277606  0.67401913     0.08600
H1029       H  0.80023882  0.54198833  0.68998175     0.08600
H1030       H  0.65409004  0.70479651  0.70561828     0.08600
H1031       H  0.64163256  0.66334680  0.72181185     0.08600
H1032       H  0.62240728  0.65870673  0.69967264     0.05300
C1033       C  0.68812305  0.85179781  0.70588068    -0.20500
C1034       C  0.72930870  0.84703385  0.71339126    -0.07000
C1035       C  0.76260873  0.87602631  0.70842233     0.13800
C1036       C  0.75421404  0.90742157  0.69565244    -0.20500
C1037       C  0.71351381  0.91126742  0.68791724    -0.07000
C1038       C  0.67982841  0.88357674  0.69319945     0.13800
C1039       C  0.63574658  0.88625074  0.68498287    -0.23900
H1040       H  0.66242452  0.82994437  0.70965023     0.15100
H1041       H  0.77974998  0.92915751  0.69156315     0.15100
C1042       C  0.80685668  0.87505487  0.71661962    -0.23800
H1043       H  0.61368458  0.86106041  0.69020427     0.05300
H1044       H  0.63829420  0.88190186  0.67048222     0.08600
H1045       H  0.62118968  0.91801585  0.68787069     0.08600
H1046       H  0.82359218  0.84482637  0.71301463     0.08600
H1047       H  0.80413187  0.87776839  0.73118499     0.08600
H1048       H  0.82738340  0.90211563  0.71195110     0.05300
C1049       C  0.80944243  0.85191261  0.79320728    -0.20500
C1050       C  0.76672435  0.83993929  0.78914247    -0.07000
C1051       C  0.73269324  0.85805341  0.79926875     0.13800
C1052       C  0.74247202  0.88711794  0.81288236    -0.20500
C1053       C  0.78501732  0.89897534  0.81676947    -0.07000
C1054       C  0.81900921  0.88089756  0.80688690     0.13800
C1055       C  0.86549355  0.89035488  0.81118707    -0.23900
H1056       H  0.83585397  0.83811439  0.78578806     0.15100
H1057       H  0.71651816  0.90097256  0.82057148     0.15100
C1058       C  0.68589266  0.84738800  0.79606600    -0.23800
H1059       H  0.88783508  0.87105786  0.80293316     0.05300
H1060       H  0.87194517  0.88251905  0.82522315     0.08600
H1061       H  0.87287502  0.92471924  0.80871908     0.08600
H1062       H  0.68009282  0.81255787  0.79831478     0.08600
H1063       H  0.67684575  0.85632086  0.78239141     0.08600
H1064       H  0.66419258  0.86520666  0.80513218     0.05300
loop_ 
_geom_bond_atom_site_label_1 
_geom_bond_atom_site_label_2 
_geom_bond_distance 
_geom_bond_site_symmetry_2 
_ccdc_geom_bond_type 
O1           Cu9   2.009       .  S
O1           C11   1.277       .  A
O2           Cu9   2.012       .  S
O2           C12   1.277       .  A
O3           Cu9   1.995       .  S
O3           C13   1.275       .  A
O4           Cu9   2.001       .  S
O4           C14   1.277       .  A
O5          Cu10   2.003       .  S
O5           C14   1.277       .  A
O6          Cu10   2.004       .  S
O6           C13   1.278       .  A
O7          Cu10   2.009       .  S
O7           C12   1.279       .  A
O8          Cu10   2.010       .  S
O8           C11   1.279       .  A
Cu9         Cu10   2.363       .  S
C11        C1050   1.497       .  S
C12        C1018   1.493       .  S
C13        C1002   1.487       .  S
C14        C1034   1.485       .  S
O15         Cu23   2.017       .  S
O15          C25   1.280       .  A
O16         Cu23   2.006       .  S
O16          C26   1.277       .  A
O17         Cu23   2.004       .  S
O17          C27   1.276       .  A
O18         Cu23   1.999       .  S
O18          C28   1.275       .  A
O19         Cu24   2.016       .  S
O19          C28   1.280       .  A
O20         Cu24   2.011       .  S
O20          C27   1.278       .  A
O21         Cu24   2.009       .  S
O21          C26   1.277       .  A
O22         Cu24   2.011       .  S
O22          C25   1.277       .  A
Cu23        Cu24   2.368       .  S
C25         C973   1.498       .  S
C26         C938   1.470       .  S
C27         C954   1.474       .  S
C28         C989   1.495       .  S
O29         Cu37   2.001       .  S
O29          C39   1.276       .  A
O30         Cu37   2.010   1_655  S
O30          C40   1.279       .  A
O31         Cu37   2.003   1_655  S
O31          C41   1.277       .  A
O32         Cu37   2.004       .  S
O32          C42   1.276       .  A
O33         Cu38   1.999       .  S
O33          C42   1.276       .  A
O34         Cu38   2.004   1_655  S
O34          C41   1.276       .  A
O35         Cu38   2.008   1_655  S
O35          C40   1.277       .  A
O36         Cu38   2.017       .  S
O36          C39   1.280       .  A
Cu37        Cu38   2.370       .  S
C39         C890   1.496       .  S
C40         C922   1.496       .  S
C41         C906   1.466       .  S
C42         C874   1.464       .  S
N43          N44   1.322       .  A
N43          C47   1.344       .  A
N43         Cu51   2.071       .  S
N44          C45   1.346       .  A
N44         Cu50   2.075       .  S
C45          C46   1.383       .  A
C45          H48   1.082       .  S
C46        C1021   1.477       .  S
C46          C47   1.383       .  A
C47          H49   1.082       .  S
Cu50         N53   2.075       .  S
Cu51         N61   2.070       .  S
Cu52         N54   2.074       .  S
Cu52         N60   2.074       .  S
N53          N54   1.323       .  A
N53          C57   1.346       .  A
N54          C55   1.345       .  A
C55          C56   1.382       .  A
C55          H58   1.082       .  S
C56         C538   1.468       .  S
C56          C57   1.382       .  A
C57          H59   1.082       .  S
N60          N61   1.321       .  A
N60          C64   1.346       .  A
N61          C62   1.342       .  A
C62          C63   1.384       .  A
C62          H65   1.082       .  S
C63         C909   1.483       .  S
C63          C64   1.386       .  A
C64          H66   1.080       .  S
N67          N68   1.320       .  A
N67          C71   1.342       .  A
N67         Cu75   2.067       .  S
N68          C69   1.346       .  A
N68         Cu74   2.070       .  S
C69          C70   1.386       .  A
C69          H72   1.082       .  S
C70         C941   1.482       .  S
C70          C71   1.385       .  A
C71          H73   1.080       .  S
Cu74         N77   2.071       .  S
Cu75         N85   2.068       .  S
Cu76         N78   2.083       .  S
Cu76         N84   2.083       .  S
N77          N78   1.323       .  A
N77          C81   1.344       .  A
N78          C79   1.347       .  A
C79          C80   1.384       .  A
C79          H82   1.082       .  S
C80         C536   1.469       .  S
C80          C81   1.381       .  A
C81          H83   1.082       .  S
N84          N85   1.321       .  A
N84          C88   1.347       .  A
N85          C86   1.343       .  A
C86          C87   1.385       .  A
C86          H89   1.082       .  S
C87         C893   1.488       .  S
C87          C88   1.389       .  A
C88          H90   1.079       .  S
O91         Cu99   2.008       .  S
O91         C101   1.277       .  A
O92         Cu99   2.008   1_655  S
O92         C102   1.277   1_545  A
O93         Cu99   2.015   1_655  S
O93         C103   1.277       .  A
O94         Cu99   2.015       .  S
O94         C104   1.278   1_545  A
O95        Cu100   2.011       .  S
O95         C104   1.277       .  A
O96        Cu100   2.011   1_655  S
O96         C103   1.279   1_565  A
O97        Cu100   2.009   1_655  S
O97         C102   1.278       .  A
O98        Cu100   2.014       .  S
O98         C101   1.279   1_565  A
Cu99       Cu100   2.368   1_545  S
C101        C842   1.486       .  S
C102        C810   1.493       .  S
C103        C826   1.492       .  S
C104        C858   1.474       .  S
N105        N106   1.322       .  A
N105        C109   1.342       .  A
N105       Cu113   2.064       .  S
N106        C107   1.347       .  A
N106       Cu112   2.080   1_565  S
C107        C108   1.387       .  A
C107        H110   1.081       .  S
C108        C986   1.480       .  S
C108        C109   1.382       .  A
C109        H111   1.082       .  S
Cu112       N115   2.081       .  S
Cu113       N123   2.064   1_565  S
Cu114       N116   2.082       .  S
Cu114       N122   2.081       .  S
N115        N116   1.324       .  A
N115        C119   1.347       .  A
N116        C117   1.345       .  A
C117        C118   1.382       .  A
C117        H120   1.082       .  S
C118        C537   1.469       .  S
C118        C119   1.383       .  A
C119        H121   1.082       .  S
N122        N123   1.321       .  A
N122        C126   1.347       .  A
N123        C124   1.343   1_545  A
C124        C125   1.383   1_565  A
C124        H127   1.081       .  S
C125        C845   1.482       .  S
C125        C126   1.387       .  A
C126        H128   1.082       .  S
N129        N130   1.321       .  A
N129        C133   1.340       .  A
N129       Cu137   2.059   1_565  S
N130        C131   1.346       .  A
N130       Cu136   2.069   1_565  S
C131        C132   1.384       .  A
C131        H134   1.082       .  S
C132       C1037   1.471       .  S
C132        C133   1.379       .  A
C133        H135   1.082       .  S
Cu136       N139   2.070       .  S
Cu137       N147   2.060       .  S
Cu138       N140   2.085       .  S
Cu138       N146   2.084       .  S
N139        N140   1.324       .  A
N139        C143   1.345       .  A
N140        C141   1.346       .  A
C141        C142   1.383       .  A
C141        H144   1.082       .  S
C142        C535   1.467       .  S
C142        C143   1.380       .  A
C143        H145   1.082       .  S
N146        N147   1.321       .  A
N146        C150   1.349       .  A
N147        C148   1.342       .  A
C148        C149   1.381       .  A
C148        H151   1.081   1_545  S
C149        C829   1.479       .  S
C149        C150   1.387       .  A
C150        H152   1.082       .  S
O153       Cu161   2.008   1_554  S
O153        C163   1.278       .  A
O154       Cu161   2.009       .  S
O154        C164   1.277       .  A
O155       Cu161   2.004   1_554  S
O155        C165   1.276       .  A
O156       Cu161   2.001       .  S
O156        C166   1.276       .  A
O157       Cu162   2.006   1_556  S
O157        C166   1.278       .  A
O158       Cu162   2.002       .  S
O158        C165   1.279       .  A
O159       Cu162   1.999   1_556  S
O159        C164   1.277       .  A
O160       Cu162   1.994       .  S
O160        C163   1.275       .  A
Cu161      Cu162   2.365   1_556  S
C163        C765   1.483       .  S
C164        C778   1.491       .  S
C165        C746   1.487       .  S
C166        C794   1.483       .  S
N167        N168   1.322       .  A
N167        C171   1.341       .  A
N167       Cu175   2.059       .  S
N168        C169   1.346       .  A
N168       Cu174   2.078       .  S
C169        C170   1.385       .  A
C169        H172   1.081       .  S
C170       C1005   1.476       .  S
C170        C171   1.380       .  A
C171        H173   1.082       .  S
Cu174       N177   2.079       .  S
Cu175       N185   2.059       .  S
Cu176       N178   2.077       .  S
Cu176       N184   2.076       .  S
N177        N178   1.323       .  A
N177        C181   1.346       .  A
N178        C179   1.345       .  A
C179        C180   1.383       .  A
C179        H182   1.082       .  S
C180        C552   1.470       .  S
C180        C181   1.383       .  A
C181        H183   1.082       .  S
N184        N185   1.321       .  A
N184        C188   1.346       .  A
N185        C186   1.342       .  A
C186        C187   1.379       .  A
C186        H189   1.082       .  S
C187        C797   1.473       .  S
C187        C188   1.384       .  A
C188        H190   1.081       .  S
N191        N192   1.320       .  A
N191        C195   1.341       .  A
N191       Cu199   2.053       .  S
N192        C193   1.347       .  A
N192       Cu198   2.076       .  S
C193        C194   1.386       .  A
C193        H196   1.082       .  S
C194        C781   1.474       .  S
C194        C195   1.379       .  A
C195        H197   1.082       .  S
Cu198       N201   2.077       .  S
Cu199       N209   2.052       .  S
Cu200       N202   2.093       .  S
Cu200       N208   2.092       .  S
N201        N202   1.325       .  A
N201        C205   1.345       .  A
N202        C203   1.348       .  A
C203        C204   1.385       .  A
C203        H206   1.082       .  S
C204        C550   1.471       .  S
C204        C205   1.380       .  A
C205        H207   1.082       .  S
N208        N209   1.320       .  A
N208        C212   1.349       .  A
N209        C210   1.340       .  A
C210        C211   1.381       .  A
C210        H213   1.079       .  S
C211        C957   1.486       .  S
C211        C212   1.392       .  A
C212        H214   1.082       .  S
O215       Cu223   2.000       .  S
O215        C225   1.276       .  A
O216       Cu223   1.999       .  S
O216        C226   1.276       .  A
O217       Cu223   2.010       .  S
O217        C227   1.280       .  A
O218       Cu223   2.013       .  S
O218        C228   1.279       .  A
O219       Cu224   2.002       .  S
O219        C228   1.276       .  A
O220       Cu224   2.003       .  S
O220        C227   1.276       .  A
O221       Cu224   2.006       .  S
O221        C226   1.277       .  A
O222       Cu224   2.012       .  S
O222        C225   1.279       .  A
Cu223      Cu224   2.364       .  S
C225        C733   1.491       .  S
C226        C682   1.480       .  S
C227        C714   1.488       .  S
C228        C698   1.495       .  S
O229       Cu237   2.005   1_554  S
O229        C239   1.276       .  A
O230       Cu237   2.004       .  S
O230        C240   1.277   1_565  A
O231       Cu237   2.018   1_554  S
O231        C241   1.278       .  A
O232       Cu237   2.011       .  S
O232        C242   1.279   1_565  A
O233       Cu238   2.015   1_556  S
O233        C242   1.278       .  A
O234       Cu238   2.001       .  S
O234        C241   1.277   1_545  A
O235       Cu238   2.011   1_556  S
O235        C240   1.277       .  A
O236       Cu238   2.003       .  S
O236        C239   1.276   1_545  A
Cu237      Cu238   2.374   1_566  S
C239        C637   1.465       .  S
C240        C653   1.477       .  S
C241        C618   1.476       .  S
C242        C669   1.491       .  S
N243        N244   1.323       .  A
N243        C247   1.344       .  A
N243       Cu251   2.073   1_545  S
N244        C245   1.349       .  A
N244       Cu250   2.087       .  S
C245        C246   1.386       .  A
C245        H248   1.082       .  S
C246        C666   1.480       .  S
C246        C247   1.382       .  A
C247        H249   1.082   1_545  S
Cu250       N253   2.088       .  S
Cu251       N261   2.073       .  S
Cu252       N254   2.090       .  S
Cu252       N260   2.089   1_545  S
N253        N254   1.324       .  A
N253        C257   1.347       .  A
N254        C255   1.348       .  A
C255        C256   1.385       .  A
C255        H258   1.082       .  S
C256        C551   1.476       .  S
C256        C257   1.384       .  A
C257        H259   1.082       .  S
N260        N261   1.322       .  A
N260        C264   1.348       .  A
N261        C262   1.344       .  A
C262        C263   1.385       .  A
C262        H265   1.082       .  S
C263        C970   1.490       .  S
C263        C264   1.390       .  A
C264        H266   1.080       .  S
N267        N268   1.321       .  A
N267        C271   1.343       .  A
N267       Cu275   2.065       .  S
N268        C269   1.347       .  A
N268       Cu274   2.079   1_565  S
C269        C270   1.387       .  A
C269        H272   1.081       .  S
C270       C1053   1.482       .  S
C270        C271   1.383       .  A
C271        H273   1.082       .  S
Cu274       N277   2.080       .  S
Cu275       N285   2.064   1_565  S
Cu276       N278   2.087       .  S
Cu276       N284   2.086       .  S
N277        N278   1.324       .  A
N277        C281   1.345       .  A
N278        C279   1.348       .  A
C279        C280   1.385       .  A
C279        H282   1.082       .  S
C280        C549   1.472       .  S
C280        C281   1.382       .  A
C281        H283   1.082       .  S
N284        N285   1.321       .  A
N284        C288   1.348       .  A
N285        C286   1.342   1_545  A
C286        C287   1.385   1_565  A
C286        H289   1.078       .  S
C287        C650   1.489       .  S
C287        C288   1.391       .  A
C288        H290   1.082       .  S
O291       Cu299   2.024       .  S
O291        C301   1.280       .  A
O292       Cu299   2.021       .  S
O292        C302   1.281       .  A
O293       Cu299   2.004       .  S
O293        C303   1.278       .  A
O294       Cu299   1.999       .  S
O294        C304   1.278       .  A
O295       Cu300   2.013       .  S
O295        C304   1.278       .  A
O296       Cu300   2.011       .  S
O296        C303   1.277       .  A
O297       Cu300   2.006       .  S
O297        C302   1.276       .  A
O298       Cu300   2.000       .  S
O298        C301   1.276       .  A
Cu299      Cu300   2.362       .  S
C301        C605   1.494       .  S
C302        C557   1.496       .  S
C303        C586   1.492       .  S
C304        C570   1.488       .  S
N305        N306   1.322   1_545  A
N305        C309   1.341       .  A
N305       Cu313   2.059   1_545  S
N306        C307   1.349   1_565  A
N306       Cu312   2.089       .  S
C307        C308   1.388       .  A
C307        H310   1.082       .  S
C308        C573   1.479       .  S
C308        C309   1.379       .  A
C309        H311   1.081       .  S
Cu312       N315   2.090       .  S
Cu313       N323   2.059       .  S
Cu314       N316   2.063       .  S
Cu314       N322   2.063       .  S
N315        N316   1.324       .  A
N315        C319   1.347       .  A
N316        C317   1.343       .  A
C317        C318   1.378       .  A
C317        H320   1.082       .  S
C318        C508   1.466       .  S
C318        C319   1.385       .  A
C319        H321   1.082       .  S
N322        N323   1.319       .  A
N322        C326   1.344       .  A
N323        C324   1.342       .  A
C324        C325   1.383       .  A
C324        H327   1.082   1_565  S
C325        C634   1.479       .  S
C325        C326   1.386       .  A
C326        H328   1.080       .  S
N329        N330   1.321       .  A
N329        C333   1.343       .  A
N329       Cu337   2.069       .  S
N330        C331   1.346       .  A
N330       Cu336   2.073   1_545  S
C331        C332   1.385       .  A
C331        H334   1.081       .  S
C332        C701   1.479       .  S
C332        C333   1.383       .  A
C333        H335   1.082       .  S
Cu336       N339   2.073       .  S
Cu337       N347   2.068   1_545  S
Cu338       N340   2.075       .  S
Cu338       N346   2.074       .  S
N339        N340   1.324       .  A
N339        C343   1.345       .  A
N340        C341   1.344       .  A
C341        C342   1.381       .  A
C341        H344   1.082       .  S
C342        C509   1.464       .  S
C342        C343   1.381       .  A
C343        H345   1.082       .  S
N346        N347   1.320       .  A
N346        C350   1.347       .  A
N347        C348   1.342       .  A
C348        C349   1.385       .  A
C348        H351   1.079   1_565  S
C349        C621   1.485       .  S
C349        C350   1.387       .  A
C350        H352   1.082       .  S
N353        N354   1.322       .  A
N353        C357   1.341       .  A
N353       Cu361   2.061       .  S
N354        C355   1.346       .  A
N354       Cu360   2.070       .  S
C355        C356   1.383       .  A
C355        H358   1.081       .  S
C356        C762   1.472       .  S
C356        C357   1.380       .  A
C357        H359   1.082       .  S
Cu360       N363   2.071       .  S
Cu361       N371   2.060       .  S
Cu362       N364   2.067       .  S
Cu362       N370   2.067       .  S
N363        N364   1.323       .  A
N363        C367   1.346       .  A
N364        C365   1.342       .  A
C365        C366   1.379       .  A
C365        H368   1.082       .  S
C366        C507   1.462       .  S
C366        C367   1.381       .  A
C367        H369   1.082       .  S
N370        N371   1.321       .  A
N370        C374   1.346       .  A
N371        C372   1.342       .  A
C372        C373   1.380       .  A
C372        H375   1.082       .  S
C373        C685   1.471       .  S
C373        C374   1.383       .  A
C374        H376   1.082       .  S
N377        N378   1.321       .  A
N377        C381   1.343       .  A
N377       Cu385   2.062       .  S
N378        C379   1.348       .  A
N378       Cu384   2.082       .  S
C379        C380   1.386       .  A
C379        H382   1.082       .  S
C380        C554   1.480       .  S
C380        C381   1.382       .  A
C381        H383   1.081       .  S
Cu384       N387   2.082       .  S
Cu385       N395   2.062       .  S
Cu386       N388   2.078       .  S
Cu386       N394   2.077       .  S
N387        N388   1.324       .  A
N387        C391   1.344       .  A
N388        C389   1.347       .  A
C389        C390   1.383       .  A
C389        H392   1.082       .  S
C390        C510   1.470       .  S
C390        C391   1.382       .  A
C391        H393   1.082       .  S
N394        N395   1.322       .  A
N394        C398   1.347       .  A
N395        C396   1.341       .  A
C396        C397   1.381       .  A
C396        H399   1.081       .  S
C397        C749   1.477       .  S
C397        C398   1.385       .  A
C398        H400   1.082       .  S
N401        N402   1.322       .  A
N401        C405   1.345       .  A
N401       Cu409   2.069       .  S
N402        C403   1.348       .  A
N402       Cu408   2.089       .  S
C403        C404   1.387       .  A
C403        H406   1.082       .  S
C404        C861   1.481       .  S
C404        C405   1.381       .  A
C405        H407   1.082   1_565  S
Cu408       N411   2.089       .  S
Cu409       N419   2.069   1_565  S
Cu410       N412   2.084       .  S
Cu410       N418   2.083       .  S
N411        N412   1.324       .  A
N411        C415   1.348       .  A
N412        C413   1.346       .  A
C413        C414   1.383       .  A
C413        H416   1.082       .  S
C414        C521   1.474       .  S
C414        C415   1.385       .  A
C415        H417   1.082       .  S
N418        N419   1.321   1_565  A
N418        C422   1.349   1_565  A
N419        C420   1.342       .  A
C420        C421   1.384       .  A
C420        H423   1.082       .  S
C421        C602   1.487       .  S
C421        C422   1.390       .  A
C422        H424   1.080       .  S
N425        N426   1.321       .  A
N425        C429   1.342       .  A
N425       Cu433   2.066   1_565  S
N426        C427   1.347       .  A
N426       Cu432   2.075       .  S
C427        C428   1.387       .  A
C427        H430   1.081       .  S
C428        C813   1.481       .  S
C428        C429   1.383       .  A
C429        H431   1.082   1_565  S
Cu432       N435   2.075       .  S
Cu433       N443   2.066       .  S
Cu434       N436   2.074       .  S
Cu434       N442   2.074   1_565  S
N435        N436   1.323       .  A
N435        C439   1.345       .  A
N436        C437   1.345       .  A
C437        C438   1.382       .  A
C437        H440   1.082       .  S
C438        C524   1.466       .  S
C438        C439   1.382       .  A
C439        H441   1.082       .  S
N442        N443   1.321       .  A
N442        C446   1.346       .  A
N443        C444   1.342       .  A
C444        C445   1.383       .  A
C444        H447   1.082       .  S
C445        C730   1.479       .  S
C445        C446   1.385       .  A
C446        H448   1.081       .  S
N449        N450   1.320       .  A
N449        C453   1.341       .  A
N449       Cu457   2.058       .  S
N450        C451   1.347       .  A
N450       Cu456   2.083       .  S
C451        C452   1.389       .  A
C451        H454   1.080       .  S
C452        C925   1.484       .  S
C452        C453   1.383       .  A
C453        H455   1.082       .  S
Cu456       N459   2.084       .  S
Cu457       N467   2.057       .  S
Cu458       N460   2.086       .  S
Cu458       N466   2.085       .  S
N459        N460   1.325       .  A
N459        C463   1.347       .  A
N460        C461   1.346       .  A
C461        C462   1.384       .  A
C461        H464   1.082       .  S
C462        C522   1.473       .  S
C462        C463   1.383       .  A
C463        H465   1.082       .  S
N466        N467   1.321       .  A
N466        C470   1.349       .  A
N467        C468   1.341       .  A
C468        C469   1.380       .  A
C468        H471   1.081       .  S
C469        C717   1.478       .  S
C469        C470   1.387       .  A
C470        H472   1.082       .  S
N473        N474   1.319       .  A
N473        C477   1.340       .  A
N473       Cu481   2.057       .  S
N474        C475   1.345       .  A
N474       Cu480   2.065       .  S
C475        C476   1.386       .  A
C475        H478   1.080       .  S
C476        C877   1.479       .  S
C476        C477   1.383       .  A
C477        H479   1.082       .  S
Cu480       N483   2.066       .  S
Cu481       N491   2.058       .  S
Cu482       N484   2.078       .  S
Cu482       N490   2.078       .  S
N483        N484   1.324       .  A
N483        C487   1.343       .  A
N484        C485   1.345       .  A
C485        C486   1.382       .  A
C485        H488   1.082       .  S
C486        C523   1.463       .  S
C486        C487   1.379       .  A
C487        H489   1.082       .  S
N490        N491   1.321       .  A
N490        C494   1.347       .  A
N491        C492   1.341       .  A
C492        C493   1.379       .  A
C492        H495   1.082       .  S
C493        C589   1.476       .  S
C493        C494   1.386       .  A
C494        H496   1.081       .  S
O497       Cu505   1.997       .  S
O497        C507   1.276       .  A
O498       Cu505   2.000   1_455  S
O498        C508   1.275       .  A
O499       Cu505   2.010       .  S
O499        C509   1.277       .  A
O500       Cu505   2.011   1_455  S
O500        C510   1.278       .  A
O501       Cu506   2.012   1_455  S
O501        C510   1.277       .  A
O502       Cu506   2.005       .  S
O502        C509   1.277       .  A
O503       Cu506   2.015   1_455  S
O503        C508   1.279       .  A
O504       Cu506   2.010       .  S
O504        C507   1.277       .  A
Cu505      Cu506   2.378       .  S
O511       Cu519   2.013       .  S
O511        C521   1.278       .  A
O512       Cu519   2.013       .  S
O512        C522   1.278       .  A
O513       Cu519   2.006       .  S
O513        C523   1.277       .  A
O514       Cu519   2.010       .  S
O514        C524   1.277       .  A
O515       Cu520   2.006       .  S
O515        C524   1.277       .  A
O516       Cu520   2.002       .  S
O516        C523   1.277       .  A
O517       Cu520   2.020       .  S
O517        C522   1.279       .  A
O518       Cu520   2.022       .  S
O518        C521   1.279       .  A
Cu519      Cu520   2.376       .  S
O525       Cu533   2.010       .  S
O525        C535   1.278       .  A
O526       Cu533   2.011       .  S
O526        C536   1.278       .  A
O527       Cu533   2.016       .  S
O527        C537   1.278       .  A
O528       Cu533   2.015       .  S
O528        C538   1.278       .  A
O529       Cu534   2.006       .  S
O529        C538   1.277       .  A
O530       Cu534   2.009       .  S
O530        C537   1.277       .  A
O531       Cu534   2.010       .  S
O531        C536   1.277       .  A
O532       Cu534   2.009       .  S
O532        C535   1.277       .  A
Cu533      Cu534   2.376       .  S
O539       Cu547   2.013       .  S
O539        C549   1.278       .  A
O540       Cu547   2.014   1_455  S
O540        C550   1.277       .  A
O541       Cu547   2.024   1_455  S
O541        C551   1.279       .  A
O542       Cu547   2.017       .  S
O542        C552   1.278       .  A
O543       Cu548   2.011       .  S
O543        C552   1.277       .  A
O544       Cu548   2.017   1_455  S
O544        C551   1.278       .  A
O545       Cu548   2.016   1_455  S
O545        C550   1.279       .  A
O546       Cu548   2.019       .  S
O546        C549   1.278       .  A
Cu547      Cu548   2.375       .  S
C553        C554   1.401       .  A
C553        C558   1.408       .  A
C553        H560   1.084       .  S
C554        C555   1.412       .  A
C555        C556   1.403       .  A
C555        C562   1.508       .  S
C556        C557   1.407       .  A
C556        H561   1.083       .  S
C557        C558   1.424       .  A
C558        C559   1.508       .  S
C559        H563   1.111       .  S
C559        H564   1.110       .  S
C559        H565   1.110       .  S
C562        H566   1.110       .  S
C562        H567   1.108       .  S
C562        H568   1.111       .  S
C569        C570   1.406       .  A
C569        C574   1.401       .  A
C569        H576   1.084       .  S
C570        C571   1.419       .  A
C571        C572   1.407       .  A
C571        C578   1.507       .  S
C572        C573   1.402       .  A
C572        H577   1.084       .  S
C573        C574   1.412       .  A
C574        C575   1.509       .  S
C575        H579   1.111       .  S
C575        H580   1.107       .  S
C575        H581   1.110       .  S
C578        H582   1.111       .  S
C578        H583   1.110       .  S
C578        H584   1.111       .  S
C585        C586   1.410       .  A
C585        C590   1.404       .  A
C585        H592   1.083       .  S
C586        C587   1.421       .  A
C587        C588   1.403       .  A
C587        C594   1.508       .  S
C588        C589   1.401       .  A
C588        H593   1.084       .  S
C589        C590   1.410       .  A
C590        C591   1.507       .  S
C591        H595   1.111       .  S
C591        H596   1.110       .  S
C591        H597   1.108       .  S
C594        H598   1.110       .  S
C594        H599   1.110       .  S
C594        H600   1.111       .  S
C601        C602   1.401       .  A
C601        C606   1.402       .  A
C601        H608   1.084       .  S
C602        C603   1.415       .  A
C603        C604   1.409       .  A
C603        C610   1.506       .  S
C604        C605   1.408       .  A
C604        H609   1.084       .  S
C605        C606   1.422       .  A
C606        C607   1.510       .  S
C607        H611   1.111       .  S
C607        H612   1.111       .  S
C607        H613   1.110       .  S
C610        H614   1.108       .  S
C610        H615   1.110       .  S
C610        H616   1.111       .  S
C617        C618   1.400       .  A
C617        C622   1.401       .  A
C617        H624   1.084   1_565  S
C618        C619   1.413       .  A
C619        C620   1.407       .  A
C619        C626   1.507       .  S
C620        C621   1.407       .  A
C620        H625   1.084       .  S
C621        C622   1.418       .  A
C622        C623   1.508   1_565  S
C623        H627   1.111       .  S
C623        H628   1.106       .  S
C623        H629   1.110   1_545  S
C626        H630   1.110       .  S
C626        H631   1.110       .  S
C626        H632   1.111       .  S
C633        C634   1.405       .  A
C633        C638   1.401       .  A
C633        H640   1.084       .  S
C634        C635   1.417       .  A
C635        C636   1.403       .  A
C635        C642   1.507       .  S
C636        C637   1.399       .  A
C636        H641   1.084       .  S
C637        C638   1.408       .  A
C638        C639   1.507       .  S
C639        H643   1.111       .  S
C639        H644   1.110   1_565  S
C639        H645   1.111       .  S
C642        H646   1.110       .  S
C642        H647   1.107       .  S
C642        H648   1.111       .  S
C649        C650   1.407       .  A
C649        C654   1.406       .  A
C649        H656   1.084       .  S
C650        C651   1.420       .  A
C651        C652   1.403   1_545  A
C651        C658   1.508   1_545  S
C652        C653   1.399   1_565  A
C652        H657   1.085       .  S
C653        C654   1.413       .  A
C654        C655   1.507       .  S
C655        H659   1.111       .  S
C655        H660   1.110       .  S
C655        H661   1.110       .  S
C658        H662   1.106       .  S
C658        H663   1.110   1_565  S
C658        H664   1.111       .  S
C665        C666   1.402       .  A
C665        C670   1.409       .  A
C665        H672   1.084       .  S
C666        C667   1.411   1_545  A
C667        C668   1.403       .  A
C667        C674   1.508       .  S
C668        C669   1.407   1_565  A
C668        H673   1.084       .  S
C669        C670   1.421       .  A
C670        C671   1.507       .  S
C671        H675   1.111       .  S
C671        H676   1.110       .  S
C671        H677   1.110       .  S
C674        H678   1.108       .  S
C674        H679   1.111       .  S
C674        H680   1.111       .  S
C681        C682   1.407       .  A
C681        C686   1.403       .  A
C681        H688   1.084       .  S
C682        C683   1.417       .  A
C683        C684   1.401       .  A
C683        C690   1.508       .  S
C684        C685   1.400       .  A
C684        H689   1.084       .  S
C685        C686   1.410       .  A
C686        C687   1.507       .  S
C687        H691   1.111       .  S
C687        H692   1.109       .  S
C687        H693   1.110       .  S
C690        H694   1.111       .  S
C690        H695   1.109       .  S
C690        H696   1.111       .  S
C697        C698   1.410       .  A
C697        C702   1.405       .  A
C697        H704   1.083       .  S
C698        C699   1.423       .  A
C699        C700   1.403       .  A
C699        C706   1.509       .  S
C700        C701   1.400       .  A
C700        H705   1.084       .  S
C701        C702   1.411       .  A
C702        C703   1.507       .  S
C703        H707   1.111       .  S
C703        H708   1.110       .  S
C703        H709   1.108       .  S
C706        H710   1.110       .  S
C706        H711   1.110       .  S
C706        H712   1.111       .  S
C713        C714   1.405       .  A
C713        C718   1.401       .  A
C713        H720   1.084       .  S
C714        C715   1.421       .  A
C715        C716   1.407       .  A
C715        C722   1.508       .  S
C716        C717   1.402       .  A
C716        H721   1.084       .  S
C717        C718   1.412       .  A
C718        C719   1.509       .  S
C719        H723   1.111       .  S
C719        H724   1.107       .  S
C719        H725   1.110       .  S
C722        H726   1.110       .  S
C722        H727   1.110       .  S
C722        H728   1.111       .  S
C729        C730   1.400       .  A
C729        C734   1.402       .  A
C729        H736   1.084       .  S
C730        C731   1.412       .  A
C731        C732   1.405       .  A
C731        C738   1.507       .  S
C732        C733   1.408       .  A
C732        H737   1.084       .  S
C733        C734   1.422       .  A
C734        C735   1.509       .  S
C735        H739   1.111       .  S
C735        H740   1.110       .  S
C735        H741   1.110       .  S
C738        H742   1.110       .  S
C738        H743   1.108       .  S
C738        H744   1.111       .  S
C745        C746   1.406       .  A
C745        C750   1.400       .  A
C745        H752   1.084       .  S
C746        C747   1.420       .  A
C747        C748   1.406       .  A
C747        C754   1.508       .  S
C748        C749   1.402       .  A
C748        H753   1.084       .  S
C749        C750   1.412       .  A
C750        C751   1.509       .  S
C751        H755   1.111       .  S
C751        H756   1.110       .  S
C751        H757   1.107       .  S
C754        H758   1.110       .  S
C754        H759   1.110       .  S
C754        H760   1.111       .  S
C761        C762   1.399       .  A
C761        C766   1.400       .  A
C761        H768   1.084       .  S
C762        C763   1.410       .  A
C763        C764   1.404       .  A
C763        C770   1.507       .  S
C764        C765   1.407       .  A
C764        H769   1.084       .  S
C765        C766   1.420       .  A
C766        C767   1.509       .  S
C767        H771   1.111       .  S
C767        H772   1.111       .  S
C767        H773   1.109       .  S
C770        H774   1.109       .  S
C770        H775   1.110       .  S
C770        H776   1.111       .  S
C777        C778   1.410       .  A
C777        C782   1.402       .  A
C777        H784   1.083       .  S
C778        C779   1.422       .  A
C779        C780   1.403       .  A
C779        C786   1.509       .  S
C780        C781   1.400       .  A
C780        H785   1.084       .  S
C781        C782   1.408       .  A
C782        C783   1.507       .  S
C783        H787   1.111       .  S
C783        H788   1.110       .  S
C783        H789   1.109       .  S
C786        H790   1.110       .  S
C786        H791   1.110       .  S
C786        H792   1.111       .  S
C793        C794   1.406       .  A
C793        C798   1.403       .  A
C793        H800   1.084       .  S
C794        C795   1.419       .  A
C795        C796   1.402       .  A
C795        C802   1.509       .  S
C796        C797   1.400       .  A
C796        H801   1.084       .  S
C797        C798   1.411       .  A
C798        C799   1.507       .  S
C799        H803   1.111       .  S
C799        H804   1.109       .  S
C799        H805   1.110       .  S
C802        H806   1.111       .  S
C802        H807   1.109       .  S
C802        H808   1.111       .  S
C809        C810   1.409       .  A
C809        C814   1.406       .  A
C809        H816   1.084       .  S
C810        C811   1.421   1_565  A
C811        C812   1.403       .  A
C811        C818   1.509       .  S
C812        C813   1.401   1_545  A
C812        H817   1.084       .  S
C813        C814   1.413       .  A
C814        C815   1.507       .  S
C815        H819   1.111       .  S
C815        H820   1.110       .  S
C815        H821   1.108       .  S
C818        H822   1.110       .  S
C818        H823   1.110       .  S
C818        H824   1.111       .  S
C825        C826   1.406   1_565  A
C825        C830   1.402       .  A
C825        H832   1.084       .  S
C826        C827   1.421       .  A
C827        C828   1.408       .  A
C827        C834   1.507       .  S
C828        C829   1.402       .  A
C828        H833   1.084       .  S
C829        C830   1.412   1_545  A
C830        C831   1.508       .  S
C831        H835   1.111       .  S
C831        H836   1.110       .  S
C831        H837   1.108       .  S
C834        H838   1.110       .  S
C834        H839   1.110       .  S
C834        H840   1.111       .  S
C841        C842   1.405   1_565  A
C841        C846   1.403       .  A
C841        H848   1.084       .  S
C842        C843   1.418       .  A
C843        C844   1.406       .  A
C843        C850   1.507       .  S
C844        C845   1.403       .  A
C844        H849   1.084       .  S
C845        C846   1.414   1_545  A
C846        C847   1.508       .  S
C847        H851   1.111       .  S
C847        H852   1.107       .  S
C847        H853   1.110       .  S
C850        H854   1.110       .  S
C850        H855   1.109       .  S
C850        H856   1.111       .  S
C857        C858   1.402       .  A
C857        C862   1.406       .  A
C857        H864   1.084   1_565  S
C858        C859   1.411       .  A
C859        C860   1.406       .  A
C859        C866   1.507       .  S
C860        C861   1.404       .  A
C860        H865   1.084       .  S
C861        C862   1.414       .  A
C862        C863   1.506   1_565  S
C863        H867   1.111       .  S
C863        H868   1.110       .  S
C863        H869   1.109   1_545  S
C866        H870   1.111       .  S
C866        H871   1.110       .  S
C866        H872   1.111       .  S
C873        C874   1.400       .  A
C873        C878   1.404       .  A
C873        H880   1.084       .  S
C874        C875   1.407       .  A
C875        C876   1.400       .  A
C875        C882   1.508       .  S
C876        C877   1.406       .  A
C876        H881   1.084       .  S
C877        C878   1.416       .  A
C878        C879   1.507       .  S
C879        H883   1.111       .  S
C879        H884   1.107       .  S
C879        H885   1.110       .  S
C882        H886   1.111       .  S
C882        H887   1.110       .  S
C882        H888   1.111       .  S
C889        C890   1.408       .  A
C889        C894   1.405       .  A
C889        H896   1.083       .  S
C890        C891   1.423       .  A
C891        C892   1.405       .  A
C891        C898   1.509       .  S
C892        C893   1.403       .  A
C892        H897   1.084       .  S
C893        C894   1.415       .  A
C894        C895   1.507       .  S
C895        H899   1.111       .  S
C895        H900   1.110       .  S
C895        H901   1.107       .  S
C898        H902   1.110       .  S
C898        H903   1.110       .  S
C898        H904   1.111       .  S
C905        C906   1.400       .  A
C905        C910   1.405       .  A
C905        H912   1.085       .  S
C906        C907   1.408       .  A
C907        C908   1.402       .  A
C907        C914   1.508       .  S
C908        C909   1.406       .  A
C908        H913   1.084       .  S
C909        C910   1.417       .  A
C910        C911   1.507       .  S
C911        H915   1.111       .  S
C911        H916   1.110       .  S
C911        H917   1.107       .  S
C914        H918   1.110       .  S
C914        H919   1.111       .  S
C914        H920   1.111       .  S
C921        C922   1.410       .  A
C921        C926   1.405       .  A
C921        H928   1.083       .  S
C922        C923   1.422       .  A
C923        C924   1.404       .  A
C923        C930   1.509       .  S
C924        C925   1.403       .  A
C924        H929   1.084       .  S
C925        C926   1.413       .  A
C926        C927   1.507       .  S
C927        H931   1.111       .  S
C927        H932   1.107       .  S
C927        H933   1.110       .  S
C930        H934   1.110       .  S
C930        H935   1.110       .  S
C930        H936   1.111       .  S
C937        C938   1.399       .  A
C937        C942   1.402       .  A
C937        H944   1.085       .  S
C938        C939   1.414       .  A
C939        C940   1.404       .  A
C939        C946   1.508       .  S
C940        C941   1.405       .  A
C940        H945   1.084       .  S
C941        C942   1.417       .  A
C942        C943   1.508       .  S
C943        H947   1.111       .  S
C943        H948   1.106       .  S
C943        H949   1.111       .  S
C946        H950   1.110       .  S
C946        H951   1.107       .  S
C946        H952   1.110       .  S
C953        C954   1.399       .  A
C953        C958   1.403       .  A
C953        H960   1.085       .  S
C954        C955   1.416       .  A
C955        C956   1.404       .  A
C955        C962   1.509       .  S
C956        C957   1.403       .  A
C956        H961   1.084       .  S
C957        C958   1.420       .  A
C958        C959   1.508       .  S
C959        H963   1.111       .  S
C959        H964   1.106       .  S
C959        H965   1.110       .  S
C962        H966   1.110       .  S
C962        H967   1.106       .  S
C962        H968   1.110       .  S
C969        C970   1.403       .  A
C969        C974   1.406       .  A
C969        H976   1.084       .  S
C970        C971   1.415       .  A
C971        C972   1.407       .  A
C971        C978   1.507       .  S
C972        C973   1.409       .  A
C972        H977   1.083       .  S
C973        C974   1.422       .  A
C974        C975   1.509       .  S
C975        H979   1.111       .  S
C975        H980   1.110       .  S
C975        H981   1.110       .  S
C978        H982   1.107       .  S
C978        H983   1.110       .  S
C978        H984   1.111       .  S
C985        C986   1.400       .  A
C985        C990   1.403       .  A
C985        H992   1.084       .  S
C986        C987   1.411       .  A
C987        C988   1.405       .  A
C987        C994   1.507       .  S
C988        C989   1.410       .  A
C988        H993   1.083       .  S
C989        C990   1.424       .  A
C990        C991   1.509       .  S
C991        H995   1.111       .  S
C991        H996   1.110       .  S
C991        H997   1.110       .  S
C994        H998   1.108       .  S
C994        H999   1.110       .  S
C994       H1000   1.111       .  S
C1001      C1002   1.408       .  A
C1001      C1006   1.403       .  A
C1001      H1008   1.084       .  S
C1002      C1003   1.421       .  A
C1003      C1004   1.401       .  A
C1003      C1010   1.509       .  S
C1004      C1005   1.400       .  A
C1004      H1009   1.084       .  S
C1005      C1006   1.411       .  A
C1006      C1007   1.507       .  S
C1007      H1011   1.111       .  S
C1007      H1012   1.108       .  S
C1007      H1013   1.110       .  S
C1010      H1014   1.110       .  S
C1010      H1015   1.110       .  S
C1010      H1016   1.111       .  S
C1017      C1018   1.409       .  A
C1017      C1022   1.403       .  A
C1017      H1024   1.084       .  S
C1018      C1019   1.422       .  A
C1019      C1020   1.406       .  A
C1019      C1026   1.508       .  S
C1020      C1021   1.400       .  A
C1020      H1025   1.084       .  S
C1021      C1022   1.410       .  A
C1022      C1023   1.508       .  S
C1023      H1027   1.111       .  S
C1023      H1028   1.108       .  S
C1023      H1029   1.111       .  S
C1026      H1030   1.110       .  S
C1026      H1031   1.110       .  S
C1026      H1032   1.111       .  S
C1033      C1034   1.409       .  A
C1033      C1038   1.403       .  A
C1033      H1040   1.084       .  S
C1034      C1035   1.419       .  A
C1035      C1036   1.400       .  A
C1035      C1042   1.509       .  S
C1036      C1037   1.399       .  A
C1036      H1041   1.084       .  S
C1037      C1038   1.409       .  A
C1038      C1039   1.507       .  S
C1039      H1043   1.111       .  S
C1039      H1044   1.110       .  S
C1039      H1045   1.109       .  S
C1042      H1046   1.109       .  S
C1042      H1047   1.111       .  S
C1042      H1048   1.111       .  S
C1049      C1050   1.410       .  A
C1049      C1054   1.405       .  A
C1049      H1056   1.083       .  S
C1050      C1051   1.423       .  A
C1051      C1052   1.404       .  A
C1051      C1058   1.509       .  S
C1052      C1053   1.401       .  A
C1052      H1057   1.084       .  S
C1053      C1054   1.411       .  A
C1054      C1055   1.507       .  S
C1055      H1059   1.111       .  S
C1055      H1060   1.110       .  S
C1055      H1061   1.108       .  S
C1058      H1062   1.110       .  S
C1058      H1063   1.110       .  S
C1058      H1064   1.111       .  S
