geometry optimzed in LAMMPS
_audit_creation_date              2020-11-30 
_audit_creation_method            'lammps2cif' 
_symmetry_space_group_name_H-M    'P1' 
_symmetry_Int_Tables_number       1 
_symmetry_cell_setting            triclinic 
loop_ 
_symmetry_equiv_pos_as_xyz 
  x,y,z 
_cell_length_a                    53.97152741 
_cell_length_b                    53.38127880120006 
_cell_length_c                    53.81509763765673 
_cell_angle_alpha                 90.20400782361781 
_cell_angle_beta                  90.40535359721534 
_cell_angle_gamma                 90.25061910382615 
loop_ 
_atom_site_label 
_atom_site_type_symbol 
_atom_site_fract_x 
_atom_site_fract_y 
_atom_site_fract_z 
_atom_site_charge 
Zn1        Zn  0.71343369  0.73251538  0.74323958     1.49700
Zn2        Zn  0.74929402  0.73240613  0.79013545     1.49400
Zn3        Zn  0.76569841  0.75851686  0.73804911     1.49100
Zn4        Zn  0.72205380  0.78327322  0.77148109     1.49500
O5          O  0.73795097  0.75185410  0.76098346    -1.83100
O6          O  0.70680074  0.70029787  0.75952394    -0.73800
O7          O  0.78686931  0.73046587  0.78988984    -0.73600
O8          O  0.76073026  0.74217802  0.70344431    -0.73100
O9          O  0.73292152  0.69706115  0.79141111    -0.73800
O10         O  0.72370102  0.72506693  0.70869531    -0.73400
O11         O  0.79810720  0.74802828  0.75430022    -0.74000
O12         O  0.74160319  0.81241805  0.75848726    -0.73400
O13         O  0.74278695  0.75215499  0.82198783    -0.74100
O14         O  0.77043282  0.79588098  0.73428676    -0.73500
O15         O  0.72481264  0.78708596  0.80884010    -0.74000
O16         O  0.68579699  0.78634949  0.75970426    -0.73900
O17         O  0.68118391  0.74951508  0.74093876    -0.73700
C18         C  0.71555330  0.68805282  0.77769146     0.78100
C19         C  0.80367622  0.73839136  0.77526292     0.78600
C20         C  0.74228584  0.72956616  0.69504303     0.77600
C21         C  0.76043907  0.81482750  0.74458311     0.77900
C22         C  0.73404287  0.77392477  0.82631138     0.79100
C23         C  0.67257930  0.77045595  0.74773930     0.78100
C24         C  0.90421460  0.98736031  0.78865623     0.87500
C25         C  0.88603779  0.96506632  0.78855739    -0.52800
C26         C  0.86982374  0.96484806  0.76888308     0.10400
C27         C  0.87314517  0.98714673  0.75109294     0.21300
C28         C  0.91675408  0.98572729  0.76309217    -0.53500
C29         C  0.90061719  0.98514246  0.74336492     0.10500
C30         C  0.88798861  0.01062553  0.78702020    -0.53000
C31         C  0.87136208  0.01061052  0.76792040     0.11100
H32         H  0.88620560  0.95062346  0.80271931     0.15600
H33         H  0.85983746  0.98690980  0.73529154     0.01300
H34         H  0.93647501  0.98371001  0.76034227     0.15900
H35         H  0.88943982  0.02595252  0.80031202     0.15700
Zn36       Zn  0.73517999  0.25660238  0.76830162     1.49700
Zn37       Zn  0.75961869  0.25716293  0.71531736     1.49400
Zn38       Zn  0.78626965  0.23023070  0.76285103     1.49100
Zn39       Zn  0.73642483  0.20572788  0.73792826     1.49500
O40         O  0.75464054  0.23706618  0.74572088    -1.83100
O41         O  0.73192151  0.29181403  0.75691112    -0.73800
O42         O  0.79646730  0.26021096  0.70899100    -0.73600
O43         O  0.78832320  0.24586889  0.79798611    -0.73100
O44         O  0.74484710  0.29285119  0.71793495    -0.73800
O45         O  0.74934186  0.25803812  0.80256398    -0.73400
O46         O  0.81462355  0.24262449  0.74172301    -0.74000
O47         O  0.75687082  0.17569910  0.74903177    -0.73400
O48         O  0.74613991  0.23838162  0.68506117    -0.74100
O49         O  0.79104249  0.19263363  0.76539795    -0.73500
O50         O  0.73301873  0.20209870  0.70035145    -0.74000
O51         O  0.70116050  0.20545119  0.75305781    -0.73900
O52         O  0.70117240  0.24325711  0.77047016    -0.73700
C53         C  0.73542749  0.30371038  0.73683210     0.78100
C54         C  0.81595515  0.25338021  0.72064184     0.78600
C55         C  0.77101969  0.25493809  0.81130506     0.77600
C56         C  0.77836098  0.17344455  0.75887320     0.77900
C57         C  0.73746289  0.21629357  0.68185263     0.79100
C58         C  0.69001958  0.22314987  0.76442554     0.78100
C59         C  0.64622509  0.46999973  0.74687067     0.87500
C60         C  0.63048938  0.47225447  0.72327429    -0.52800
C61         C  0.61538169  0.49256141  0.72262875     0.10400
C62         C  0.61748442  0.50943545  0.74588237     0.21300
C63         C  0.66029315  0.49511975  0.74898236    -0.53500
C64         C  0.64534345  0.51587894  0.74881928     0.10500
C65         C  0.62747879  0.47147323  0.76855997    -0.53000
C66         C  0.61255540  0.49213212  0.76799102     0.11100
H67         H  0.63074307  0.45836537  0.70845978     0.15600
H68         H  0.60516415  0.52601954  0.74512958     0.01300
H69         H  0.68015534  0.49622500  0.75216817     0.15900
H70         H  0.62701349  0.45867881  0.78412276     0.15700
C71         C  0.73365574  0.64557737  0.52548207     0.87500
C72         C  0.75720920  0.63005812  0.52309876    -0.52800
C73         C  0.75793820  0.61455359  0.50299898     0.10400
C74         C  0.73454322  0.61635518  0.48626966     0.21300
C75         C  0.73161069  0.65973952  0.50064118    -0.53500
C76         C  0.73187163  0.64457605  0.48002054     0.10500
C77         C  0.71231963  0.62645741  0.52417722    -0.53000
C78         C  0.71258007  0.61104801  0.50377944     0.11100
H79         H  0.77169587  0.63036436  0.53722524     0.15600
H80         H  0.73512391  0.60378319  0.46983924     0.01300
H81         H  0.72967770  0.67983318  0.49901947     0.15900
H82         H  0.69781943  0.62574910  0.53804966     0.15700
Zn83       Zn  0.74773535  0.72125954  0.21330886     1.49700
Zn84       Zn  0.77631963  0.76814579  0.23969926     1.49400
Zn85       Zn  0.72305265  0.74862680  0.26128330     1.49100
Zn86       Zn  0.77103676  0.71666115  0.26729666     1.49500
O87         O  0.75428695  0.73895184  0.24502337    -1.83100
O88         O  0.76334990  0.74036868  0.18459136    -0.73800
O89         O  0.75890928  0.79994325  0.25013436    -0.73600
O90         O  0.69371552  0.74028081  0.23887331    -0.73100
O91         O  0.78135883  0.77314999  0.20287723    -0.73800
O92         O  0.71089247  0.72355642  0.20525957    -0.73400
O93         O  0.72215416  0.78635225  0.26294226    -0.74000
O94         O  0.75519219  0.71494400  0.30031345    -0.73400
O95         O  0.81040583  0.76472879  0.25688089    -0.74100
O96         O  0.71886816  0.73383393  0.29673931    -0.73500
O97         O  0.80573523  0.72710991  0.27337130    -0.74000
O98         O  0.77200281  0.68215253  0.25392982    -0.73900
O99         O  0.75921606  0.68406782  0.21466982    -0.73700
C100        C  0.77478452  0.76131034  0.18328429     0.78100
C101        C  0.73690888  0.80419639  0.25750136     0.78600
C102        C  0.69196460  0.73187530  0.21669767     0.77600
C103        C  0.73466909  0.72155039  0.30958503     0.77900
C104        C  0.81907916  0.74620900  0.26907627     0.79100
C105        C  0.76775109  0.67163388  0.23313562     0.78100
C106        C  0.73298964  0.90147136  0.00971778     0.87500
C107        C  0.73603595  0.88462099  0.03289403    -0.52800
C108        C  0.75641963  0.86941601  0.03233385     0.10400
C109        C  0.77184945  0.87214737  0.00852050     0.21300
C110        C  0.75788084  0.91549851  0.00813257    -0.53500
C111        C  0.77835360  0.90036666  0.00783484     0.10500
C112        C  0.73309503  0.88294855  0.98789423    -0.53000
C113        C  0.75327768  0.86781639  0.98701461     0.11100
H114        H  0.72353790  0.88421640  0.04849850     0.15600
H115        H  0.78813995  0.85956199  0.00808699     0.01300
H116        H  0.75910942  0.93580851  0.00808035     0.15900
H117        H  0.71844608  0.88206527  0.97395199     0.15700
C118        C  0.48068303  0.75024456  0.13083498     0.87500
C119        C  0.48379330  0.72660248  0.11464346    -0.52800
C120        C  0.50408391  0.72696975  0.09959915     0.10400
C121        C  0.51958830  0.75125138  0.10191069     0.21300
C122        C  0.50552748  0.75228639  0.14487564    -0.53500
C123        C  0.52596111  0.75283468  0.12994908     0.10500
C124        C  0.48082529  0.77189223  0.11238874    -0.53000
C125        C  0.50095552  0.77274952  0.09725024     0.11100
H126        H  0.47200297  0.71019704  0.11542179     0.15600
H127        H  0.53605997  0.75172738  0.08967119     0.01300
H128        H  0.50680701  0.75208104  0.16502090     0.15900
H129        H  0.46632237  0.78594704  0.11184226     0.15700
C130        C  0.40255358  0.00611956  0.77806550     0.87500
C131        C  0.38635289  0.98264534  0.77473456    -0.52800
C132        C  0.37145624  0.98299886  0.75420428     0.10400
C133        C  0.37429364  0.00669563  0.73833288     0.21300
C134        C  0.41695965  0.00819582  0.75350711    -0.53500
C135        C  0.40218773  0.00858128  0.73276595     0.10500
C136        C  0.38439196  0.02824567  0.77698954    -0.53000
C137        C  0.36961174  0.02865335  0.75625617     0.11100
H138        H  0.38624419  0.96723469  0.78787175     0.15600
H139        H  0.36213200  0.00672003  0.72161842     0.01300
H140        H  0.43686072  0.00997448  0.75204617     0.15900
H141        H  0.38392674  0.04281748  0.79111762     0.15700
C142        C  0.72493198  0.38989361  0.98401667     0.87500
C143        C  0.72411469  0.37121042  0.00557490    -0.52800
C144        C  0.74422833  0.35601047  0.00732469     0.10400
C145        C  0.76377786  0.36077880  0.98715893     0.21300
C146        C  0.74961838  0.40406509  0.98714639    -0.53500
C147        C  0.77007678  0.38902883  0.98856762     0.10500
C148        C  0.72908724  0.37312790  0.96083339    -0.53000
C149        C  0.74944929  0.35795704  0.96252347     0.11100
H150        H  0.70862017  0.36986943  0.01829758     0.15600
H151        H  0.78015474  0.34834164  0.98867827     0.01300
H152        H  0.75077514  0.42435770  0.98647278     0.15900
H153        H  0.71731614  0.37266701  0.94451025     0.15700
C154        C  0.24260327  0.64770053  0.96381875     0.87500
C155        C  0.22084916  0.62889999  0.96623182    -0.52800
C156        C  0.22275537  0.61341715  0.98636546     0.10400
C157        C  0.24611040  0.61795965  0.00228789     0.21300
C158        C  0.24268771  0.66141512  0.98896882    -0.53500
C159        C  0.24453642  0.64607815  0.00926110     0.10500
C160        C  0.26588158  0.63139518  0.96410107    -0.53000
C161        C  0.26783824  0.61590570  0.98398589     0.11100
H162        H  0.20478227  0.62808758  0.95410789     0.15600
H163        H  0.24780478  0.60515488  0.01841346     0.01300
H164        H  0.24004085  0.68150482  0.99036528     0.15900
H165        H  0.27981209  0.63205297  0.94962739     0.15700
C166        C  0.13532051  0.52819453  0.73199790     0.87500
C167        C  0.11697416  0.52496172  0.75377082    -0.52800
C168        C  0.10568483  0.50186666  0.75458466     0.10400
C169        C  0.11346860  0.48431605  0.73338624     0.21300
C170        C  0.15325212  0.50591251  0.73485492    -0.53500
C171        C  0.14190489  0.48300804  0.73602529     0.10500
C172        C  0.12024191  0.52170455  0.70867307    -0.53000
C173        C  0.10857105  0.49909431  0.70937528     0.11100
H174        H  0.11423523  0.53921723  0.76792178     0.15600
H175        H  0.10389482  0.46588482  0.73376990     0.01300
H176        H  0.17324253  0.50749318  0.73572644     0.15900
H177        H  0.11805800  0.53452964  0.69316586     0.15700
C178        C  0.74210796  0.14183019  0.46230271     0.87500
C179        C  0.72067716  0.12279623  0.46568448    -0.52800
C180        C  0.72201130  0.10942353  0.48742634     0.10400
C181        C  0.74492129  0.11601553  0.50348529     0.21300
C182        C  0.74104404  0.15792113  0.48617048    -0.53500
C183        C  0.74260731  0.14448291  0.50775835     0.10500
C184        C  0.76553396  0.12616169  0.46488030    -0.53000
C185        C  0.76736881  0.11269549  0.48621208     0.11100
H186        H  0.70494695  0.12115050  0.45314153     0.15600
H187        H  0.74630009  0.10499360  0.52088475     0.01300
H188        H  0.73893249  0.17813248  0.48599183     0.15900
H189        H  0.77920938  0.12513339  0.45019926     0.15700
C190        C  0.03089821  0.73682325  0.35839300     0.87500
C191        C  0.02632809  0.71527940  0.37667481    -0.52800
C192        C  0.00493245  0.71719737  0.38976742     0.10400
C193        C  0.98919020  0.74013435  0.38271274     0.21300
C194        C  0.00762341  0.73634433  0.34173625    -0.53500
C195        C  0.98586709  0.73832574  0.35430160     0.10500
C196        C  0.02849925  0.76083459  0.37400810    -0.53000
C197        C  0.00665813  0.76278820  0.38674998     0.11100
H198        H  0.03852724  0.69932795  0.37887404     0.15600
H199        H  0.97132714  0.74124534  0.39270364     0.01300
H200        H  0.00806006  0.73476395  0.32165787     0.15900
H201        H  0.04296222  0.77501988  0.37481493     0.15700
Zn202      Zn  0.27991935  0.71428886  0.22934039     1.49700
Zn203      Zn  0.27728584  0.76699837  0.25762675     1.49400
Zn204      Zn  0.22907296  0.74420867  0.22894735     1.49100
Zn205      Zn  0.25001698  0.71770994  0.27902737     1.49500
O206        O  0.25895853  0.73602852  0.24879716    -1.83100
O207        O  0.31281449  0.73027453  0.22395553    -0.73800
O208        O  0.25788031  0.79749193  0.24653811    -0.73600
O209        O  0.22944956  0.72781413  0.19441784    -0.73100
O210        O  0.31209409  0.76762984  0.24242987    -0.73800
O211        O  0.26450246  0.70623894  0.19623229    -0.73400
O212        O  0.22520018  0.78191907  0.22642284    -0.74000
O213        O  0.21325961  0.71648007  0.28170924    -0.73400
O214        O  0.27889321  0.77122283  0.29520965    -0.74100
O215        O  0.19802103  0.73371372  0.24727226    -0.73500
O216        O  0.25918760  0.73766276  0.30954238    -0.74000
O217        O  0.26457010  0.68233547  0.28082520    -0.73900
O218        O  0.28644488  0.68157475  0.24601945    -0.73700
C219        C  0.32324717  0.75091046  0.22974018     0.78100
C220        C  0.23728360  0.80057035  0.23521131     0.78600
C221        C  0.24490611  0.71269913  0.18466269     0.77600
C222        C  0.19506985  0.72417765  0.26871662     0.77900
C223        C  0.26961353  0.75881257  0.31313035     0.79100
C224        C  0.27912166  0.67121862  0.26587275     0.78100
C225        C  0.24473747  0.86900818  0.46402124     0.87500
C226        C  0.26603115  0.88793242  0.46584288    -0.52800
C227        C  0.26539592  0.90311814  0.48617078     0.10400
C228        C  0.24293607  0.89817790  0.50323405     0.21300
C229        C  0.24483066  0.85501679  0.48886536    -0.53500
C230        C  0.24360036  0.87002174  0.50933679     0.10500
C231        C  0.22110437  0.88532177  0.46530517    -0.53000
C232        C  0.22003749  0.90043745  0.48600061     0.11100
H233        H  0.28078026  0.88899064  0.45223186     0.15600
H234        H  0.24230794  0.91047694  0.51990788     0.01300
H235        H  0.24456098  0.83469933  0.49008604     0.15900
H236        H  0.20569107  0.88399422  0.45239633     0.15700
C237        C  0.90174959  0.49712997  0.20964992     0.87500
C238        C  0.88200312  0.51775014  0.21120343    -0.52800
C239        C  0.86643799  0.51558063  0.23085780     0.10400
C240        C  0.87184794  0.49276262  0.24746219     0.21300
C241        C  0.91489290  0.49749328  0.23491703    -0.53500
C242        C  0.89954159  0.49496212  0.25488766     0.10500
C243        C  0.88627006  0.47281995  0.20950017    -0.53000
C244        C  0.87082840  0.47026236  0.22941059     0.11100
H245        H  0.87940329  0.53229895  0.19743315     0.15600
H246        H  0.85876257  0.49101213  0.26312282     0.01300
H247        H  0.93486748  0.49938732  0.23666594     0.15900
H248        H  0.88746469  0.45878548  0.19493212     0.15700
Zn249      Zn  0.77448140  0.26426025  0.20784607     1.49700
Zn250      Zn  0.77664112  0.21329668  0.23801832     1.49400
Zn251      Zn  0.74898508  0.26242257  0.25948774     1.49100
Zn252      Zn  0.72555622  0.23314940  0.21147148     1.49500
O253        O  0.75611554  0.24278735  0.22948189    -1.83100
O254        O  0.80833365  0.25213859  0.20381110    -0.73800
O255        O  0.77870336  0.20956753  0.27576921    -0.73600
O256        O  0.76567248  0.29706834  0.25935083    -0.73100
O257        O  0.81161536  0.21516056  0.22206382    -0.73800
O258        O  0.77735198  0.29921215  0.21991663    -0.73400
O259        O  0.75908031  0.24308420  0.29005753    -0.74000
O260        O  0.69571800  0.24536771  0.23078973    -0.73400
O261        O  0.75827098  0.18154153  0.22783517    -0.74100
O262        O  0.71192406  0.26596130  0.26307291    -0.73500
O263        O  0.72262090  0.19533335  0.21219817    -0.74000
O264        O  0.72467118  0.24559526  0.17484730    -0.73900
O265        O  0.76097142  0.26511705  0.17394529    -0.73700
C266        C  0.82094211  0.23290892  0.20915815     0.78100
C267        C  0.76979704  0.22218988  0.29379485     0.78600
C268        C  0.77495313  0.30912516  0.24119355     0.77600
C269        C  0.69318721  0.25740918  0.25114774     0.77900
C270        C  0.73646868  0.17739730  0.21939018     0.79100
C271        C  0.74141976  0.25760620  0.16308155     0.78100
C272        C  0.62097001  0.98809215  0.28238037     0.87500
C273        C  0.63533283  0.01298458  0.27986818    -0.52800
C274        C  0.64871903  0.01505519  0.25838143     0.10400
C275        C  0.64668485  0.99176083  0.24145746     0.21300
C276        C  0.60552744  0.98592744  0.25850172    -0.53500
C277        C  0.61858555  0.98872178  0.23713544     0.10500
C278        C  0.64089197  0.96786693  0.27954942    -0.53000
C279        C  0.65428627  0.96970738  0.25825984     0.11100
H280        H  0.63472850  0.02767647  0.29384803     0.15600
H281        H  0.65747091  0.99319992  0.22403330     0.01300
H282        H  0.58545530  0.98418864  0.25856749     0.15900
H283        H  0.64422222  0.95274824  0.29245208     0.15700
C284        C  0.52783116  0.24641833  0.85141450     0.87500
C285        C  0.52837745  0.22716386  0.87229346    -0.52800
C286        C  0.50912198  0.22860646  0.88837141     0.10400
C287        C  0.49029429  0.24920053  0.88181692     0.21300
C288        C  0.50241116  0.24301811  0.83870265    -0.53500
C289        C  0.48273665  0.24475785  0.85450617     0.10500
C290        C  0.52544912  0.27202018  0.86496284    -0.53000
C291        C  0.50578929  0.27340848  0.88092767     0.11100
H292        H  0.54321855  0.21362488  0.87445328     0.15600
H293        H  0.47415100  0.24997636  0.89444020     0.01300
H294        H  0.50014378  0.24157542  0.81867640     0.15900
H295        H  0.53738992  0.28802140  0.86191721     0.15700
Zn296      Zn  0.28579241  0.24616614  0.73265440     1.49700
Zn297      Zn  0.23645038  0.22337529  0.75834516     1.49400
Zn298      Zn  0.25996559  0.27576979  0.77868893     1.49100
Zn299      Zn  0.23409584  0.27125999  0.72540063     1.49500
O300        O  0.25433182  0.25401924  0.74917778    -1.83100
O301        O  0.29007890  0.20863957  0.73108290    -0.73800
O302        O  0.23439125  0.22159825  0.79560078    -0.73600
O303        O  0.29705041  0.27940185  0.78489363    -0.73100
O304        O  0.25614893  0.19304018  0.74839061    -0.73800
O305        O  0.31425818  0.25865909  0.75360134    -0.73400
O306        O  0.24806418  0.25820104  0.81010422    -0.74000
O307        O  0.22800429  0.30577120  0.73643967    -0.73400
O308        O  0.20175492  0.22077930  0.74271736    -0.74100
O309        O  0.24383611  0.31064285  0.77432956    -0.73500
O310        O  0.20143277  0.25526993  0.71979934    -0.74000
O311        O  0.24973753  0.27363771  0.69250247    -0.73900
O312        O  0.28835376  0.26033977  0.69736599    -0.73700
C313        C  0.27723527  0.18998807  0.73836933     0.78100
C314        C  0.23983107  0.23606585  0.81375698     0.78600
C315        C  0.31613609  0.27080158  0.77396388     0.77600
C316        C  0.23214054  0.31927875  0.75548107     0.77900
C317        C  0.19101608  0.23548815  0.72749886     0.79100
C318        C  0.27120151  0.26972761  0.68398087     0.78100
C319        C  0.02744803  0.24399404  0.63666829     0.87500
C320        C  0.02544201  0.26693769  0.61944395    -0.52800
C321        C  0.00476352  0.26691061  0.60443862     0.10400
C322        C  0.98782295  0.24392462  0.60826849     0.21300
C323        C  0.00282968  0.24440619  0.65100254    -0.53500
C324        C  0.98198307  0.24480001  0.63634984     0.10500
C325        C  0.02530861  0.22135269  0.61948380    -0.53000
C326        C  0.00493601  0.22111617  0.60446184     0.11100
H327        H  0.03891087  0.28210482  0.61953237     0.15600
H328        H  0.97118864  0.24395089  0.59610584     0.01300
H329        H  0.00166278  0.24579593  0.67099953     0.15900
H330        H  0.03889844  0.20638183  0.61945582     0.15700
C331        C  0.03786712  0.25204635  0.14670495     0.87500
C332        C  0.03819948  0.27123048  0.12584702    -0.52800
C333        C  0.02057297  0.26777108  0.10798992     0.10400
C334        C  0.00321539  0.24516722  0.11303788     0.21300
C335        C  0.01134880  0.25315211  0.15693157    -0.53500
C336        C  0.99309303  0.24877620  0.13964658     0.10500
C337        C  0.03892480  0.22637636  0.13356840    -0.53000
C338        C  0.02078942  0.22269781  0.11596201     0.11100
H339        H  0.05178848  0.28630052  0.12505184     0.15600
H340        H  0.98872876  0.24217253  0.09862176     0.01300
H341        H  0.00694942  0.25534269  0.17638278     0.15900
H342        H  0.05282927  0.21238887  0.13791687     0.15700
Zn343      Zn  0.03986924  0.00799020  0.03382594     1.49700
Zn344      Zn  0.00840152  0.95748877  0.03117619     1.49400
Zn345      Zn  0.98910799  0.00900541  0.00536656     1.49100
Zn346      Zn  0.03756655  0.98023096  0.98360233     1.49500
O347        O  0.01829576  0.98826059  0.01326738    -1.83100
O348        O  0.04052342  0.99481163  0.06748077    -0.73800
O349        O  0.97070060  0.95519423  0.03187213    -0.73600
O350        O  0.99110095  0.04454238  0.02048504    -0.73100
O351        O  0.02225470  0.95748135  0.06734366    -0.73800
O352        O  0.02896829  0.04310119  0.03653546    -0.73400
O353        O  0.95761662  0.99100206  0.01559019    -0.74000
O354        O  0.01957927  0.99289444  0.95370306    -0.73400
O355        O  0.01828278  0.92652661  0.01098097    -0.74100
O356        O  0.98588293  0.01166969  0.96810912    -0.73500
O357        O  0.03715852  0.94288392  0.97817985    -0.74000
O358        O  0.07325834  0.99412651  0.98410294    -0.73900
O359        O  0.07466604  0.00933800  0.02242152    -0.73700
C360        C  0.03398120  0.97506094  0.07869529     0.78100
C361        C  0.95311716  0.96943144  0.02469511     0.78600
C362        C  0.00935712  0.05514258  0.03157091     0.77600
C363        C  0.99895276  0.00377999  0.95008634     0.77900
C364        C  0.02829125  0.92404927  0.98965636     0.79100
C365        C  0.08512992  0.00462557  0.00192714     0.78100
Zn366      Zn  0.23151056  0.22189907  0.24249161     1.49700
Zn367      Zn  0.28504946  0.24643552  0.24147152     1.49400
Zn368      Zn  0.24084970  0.27195759  0.27169285     1.49100
Zn369      Zn  0.26270241  0.21943414  0.29185336     1.49500
O370        O  0.25548042  0.23995213  0.26210333    -1.83100
O371        O  0.24340794  0.21668443  0.20829658    -0.73800
O372        O  0.29150642  0.28414724  0.23786224    -0.73600
O373        O  0.20634734  0.27707198  0.25750181    -0.73100
O374        O  0.28223630  0.23016399  0.20656377    -0.73800
O375        O  0.19975941  0.23983288  0.24007209    -0.73400
O376        O  0.26206887  0.30072845  0.26118170    -0.74000
O377        O  0.25218178  0.23797546  0.32381457    -0.73400
O378        O  0.31498593  0.23431080  0.26066751    -0.74100
O379        O  0.23958660  0.27444249  0.30869261    -0.73500
O380        O  0.29976235  0.21762158  0.29527703    -0.74000
O381        O  0.24754442  0.18342182  0.28924445    -0.73900
O382        O  0.22419598  0.18808068  0.25550535    -0.73700
C383        C  0.26332163  0.21983241  0.19630371     0.78100
C384        C  0.28137514  0.30314868  0.24799389     0.78600
C385        C  0.19245719  0.26159388  0.24591529     0.77600
C386        C  0.24459346  0.26040551  0.32711650     0.77900
C387        C  0.31806052  0.22474294  0.28218655     0.79100
C388        C  0.23187602  0.17475123  0.27340383     0.78100
C389        C  0.11451535  0.98354836  0.29310983     0.87500
C390        C  0.13181775  0.00627679  0.29177163    -0.52800
C391        C  0.14636517  0.00710742  0.27121534     0.10400
C392        C  0.14245039  0.98445950  0.25347269     0.21300
C393        C  0.10010088  0.98345250  0.26846523    -0.53500
C394        C  0.11438806  0.98341978  0.24760492     0.10500
C395        C  0.13211495  0.96081792  0.29079977    -0.53000
C396        C  0.14661849  0.96124392  0.26994472     0.11100
H397        H  0.13245128  0.02073675  0.30603355     0.15600
H398        H  0.15457378  0.98474070  0.23692657     0.01300
H399        H  0.07999431  0.98268241  0.26776380     0.15900
H400        H  0.13255454  0.94511385  0.30344719     0.15700
Zn401      Zn  0.96304104  0.00229867  0.53094473     1.49700
Zn402      Zn  0.01196406  0.00559674  0.49968814     1.49400
Zn403      Zn  0.99495074  0.95334421  0.52461344     1.49100
Zn404      Zn  0.96387715  0.97663648  0.47781247     1.49500
O405        O  0.98358745  0.98413295  0.50803134    -1.83100
O406        O  0.97679902  0.03599219  0.53916112    -0.73800
O407        O  0.04397711  0.98947461  0.51082299    -0.73600
O408        O  0.98083729  0.94966328  0.55993316    -0.73100
O409        O  0.00906689  0.04081360  0.51429581    -0.73800
O410        O  0.95771334  0.98392954  0.56214987    -0.73400
O411        O  0.03261087  0.95245064  0.52567354    -0.74000
O412        O  0.96127033  0.93902690  0.47324404    -0.73400
O413        O  0.01602590  0.00727784  0.46258794    -0.74100
O414        O  0.98485411  0.92351329  0.50352621    -0.73500
O415        O  0.98345661  0.98669310  0.44718221    -0.74000
O416        O  0.92905764  0.99311132  0.47871602    -0.73900
O417        O  0.92971611  0.00831552  0.51711695    -0.73700
C418        C  0.99421126  0.04940819  0.53054771     0.78100
C419        C  0.04948636  0.96791724  0.51931333     0.78600
C420        C  0.96570855  0.96375474  0.57152098     0.77600
C421        C  0.97197234  0.92056250  0.48375866     0.77900
C422        C  0.00418352  0.99784267  0.44424606     0.79100
C423        C  0.91846470  0.00451005  0.49668998     0.78100
C424        C  0.25857334  0.14560821  0.97767319     0.87500
C425        C  0.23742952  0.12647819  0.97803919    -0.52800
C426        C  0.23684064  0.11170997  0.99859134     0.10400
C427        C  0.25776228  0.11757015  0.01752186     0.21300
C428        C  0.25630708  0.16036093  0.00207824    -0.53500
C429        C  0.25631380  0.14595643  0.02303288     0.10500
C430        C  0.28227215  0.12975255  0.98165256    -0.53000
C431        C  0.28188438  0.11509170  0.00258957     0.11100
H432        H  0.22408795  0.12452375  0.96292435     0.15600
H433        H  0.25733334  0.10575800  0.03442405     0.01300
H434        H  0.25547432  0.18066653  0.00261701     0.15900
H435        H  0.29839835  0.13044275  0.96985359     0.15700
Zn436      Zn  0.48256039  0.03446152  0.99639015     1.49700
Zn437      Zn  0.53533410  0.03320039  0.02171209     1.49400
Zn438      Zn  0.48896050  0.99978258  0.04268424     1.49100
Zn439      Zn  0.51572059  0.98537694  0.99047281     1.49500
O440        O  0.50586173  0.01288931  0.01304221    -1.83100
O441        O  0.49471815  0.06939797  0.99413042    -0.73800
O442        O  0.53949849  0.03349735  0.05892820    -0.73600
O443        O  0.45300841  0.01272853  0.04656891    -0.73100
O444        O  0.53355877  0.06919031  0.00794680    -0.73800
O445        O  0.44973290  0.03622182  0.01276899    -0.73400
O446        O  0.50904373  0.00927836  0.07303549    -0.74000
O447        O  0.50578671  0.95176017  0.00520932    -0.73400
O448        O  0.56673012  0.01608098  0.01019296    -0.74100
O449        O  0.48955887  0.96173769  0.04181001    -0.73500
O450        O  0.55337176  0.98329540  0.98836985    -0.74000
O451        O  0.50055939  0.98969169  0.95558045    -0.73900
O452        O  0.47727773  0.02323902  0.96176870    -0.73700
C453        C  0.51513829  0.08056543  0.99820492     0.78100
C454        C  0.52868347  0.02217343  0.07666837     0.78600
C455        C  0.44054549  0.02726145  0.03246896     0.77600
C456        C  0.49690064  0.94536323  0.02618134     0.77900
C457        C  0.57105569  0.99615800  0.99785976     0.79100
C458        C  0.48529534  0.00607833  0.94757525     0.78100
Zn459      Zn  0.51842022  0.02732933  0.48234609     1.49700
Zn460      Zn  0.48648509  0.97636423  0.48157068     1.49400
Zn461      Zn  0.51393170  0.99749574  0.53133114     1.49100
Zn462      Zn  0.46650312  0.02771752  0.50706512     1.49500
O463        O  0.49592347  0.00680788  0.50079317    -1.83100
O464        O  0.52592125  0.01066533  0.45130317    -0.73800
O465        O  0.49465104  0.94489941  0.50180704    -0.73600
O466        O  0.55047824  0.00949604  0.53227326    -0.73100
O467        O  0.50366052  0.97591420  0.44711743    -0.73800
O468        O  0.55058742  0.03426685  0.49927266    -0.73400
O469        O  0.51224622  0.95987422  0.53623814    -0.74000
O470        O  0.46320756  0.03209284  0.54398544    -0.73400
O471        O  0.44878771  0.97470185  0.47770887    -0.74100
O472        O  0.49544312  0.01193730  0.56044567    -0.73500
O473        O  0.43528024  0.00908522  0.49648838    -0.74000
O474        O  0.46729885  0.06205563  0.48933809    -0.73900
O475        O  0.50415697  0.05947559  0.47168436    -0.73700
C476        C  0.51930339  0.99174496  0.43861481     0.78100
C477        C  0.50381549  0.94148627  0.52350294     0.78600
C478        C  0.56141041  0.02513963  0.51814586     0.77600
C479        C  0.47537173  0.02424726  0.56278127     0.77900
C480        C  0.43100012  0.98830463  0.48546259     0.79100
C481        C  0.48406337  0.07104509  0.47528901     0.78100
C482        C  0.53360411  0.25406464  0.35038588     0.87500
C483        C  0.53159207  0.23050735  0.36685016    -0.52800
C484        C  0.51166395  0.23046102  0.38254842     0.10400
C485        C  0.49579343  0.25426275  0.38065410     0.21300
C486        C  0.50810916  0.25551096  0.33735331    -0.53500
C487        C  0.48838377  0.25495117  0.35305834     0.10500
C488        C  0.53356711  0.27609727  0.36866512    -0.53000
C489        C  0.51411201  0.27627086  0.38472248     0.11100
H490        H  0.54422188  0.21479808  0.36535326     0.15600
H491        H  0.47985061  0.25445570  0.39356689     0.01300
H492        H  0.50510983  0.25518509  0.31745437     0.15900
H493        H  0.54771069  0.29063869  0.36857516     0.15700
Zn494      Zn  0.02838941  0.50347125  0.95951433     1.49700
Zn495      Zn  0.99794461  0.45314730  0.96342540     1.49400
Zn496      Zn  0.02795215  0.47582422  0.01123753     1.49100
Zn497      Zn  0.97846101  0.50366543  0.99052271     1.49500
O498        O  0.00792400  0.48383516  0.98141823    -1.83100
O499        O  0.03442884  0.48632961  0.92748511    -0.73800
O500        O  0.01079037  0.42282423  0.98194452    -0.73600
O501        O  0.06197205  0.49314799  0.01144422    -0.73100
O502        O  0.01031720  0.45249579  0.92706899    -0.73800
O503        O  0.06142848  0.51102586  0.97429903    -0.73400
O504        O  0.03184877  0.43817144  0.01429800    -0.74000
O505        O  0.97712158  0.50724066  0.02792697    -0.73400
O506        O  0.96067621  0.44924193  0.96463447    -0.74100
O507        O  0.00991309  0.48664778  0.04213027    -0.73500
O508        O  0.94667347  0.48455385  0.98141789    -0.74000
O509        O  0.97878292  0.53869987  0.97453323    -0.73900
O510        O  0.01266650  0.53610969  0.95142994    -0.73700
C511        C  0.02575473  0.46712787  0.91648261     0.78100
C512        C  0.02332521  0.41960705  0.00186143     0.78600
C513        C  0.07235007  0.50633896  0.99472555     0.77600
C514        C  0.99007698  0.49887481  0.04595966     0.77900
C515        C  0.94285809  0.46266037  0.97248485     0.79100
C516        C  0.99377423  0.54806530  0.95878482     0.78100
Zn517      Zn  0.51227226  0.47807589  0.96404655     1.49700
Zn518      Zn  0.48574448  0.53109936  0.96746702     1.49400
Zn519      Zn  0.46397197  0.48234426  0.99650659     1.49100
Zn520      Zn  0.51627732  0.50762892  0.01430813     1.49500
O521        O  0.49425136  0.50011319  0.98578014    -1.83100
O522        O  0.51721238  0.49317556  0.93108617    -0.73800
O523        O  0.44796487  0.53532551  0.96635173    -0.73600
O524        O  0.46075579  0.44714020  0.98104962    -0.73100
O525        O  0.50089207  0.53129664  0.93205376    -0.73800
O526        O  0.49503175  0.44602189  0.95847343    -0.73400
O527        O  0.43354981  0.50286139  0.98768918    -0.74000
O528        O  0.50025831  0.49570434  0.04608826    -0.73400
O529        O  0.49848635  0.56139802  0.98690142    -0.74100
O530        O  0.46424733  0.47916410  0.03404542    -0.73500
O531        O  0.51962020  0.54499476  0.01841564    -0.74000
O532        O  0.55104120  0.49217081  0.01127502    -0.73900
O533        O  0.54567405  0.46940261  0.97712720    -0.73700
C534        C  0.51257978  0.51393888  0.92068981     0.78100
C535        C  0.42990148  0.52330585  0.97602903     0.78600
C536        C  0.47529741  0.43588181  0.96617619     0.77600
C537        C  0.47950699  0.48550897  0.05119531     0.77900
C538        C  0.51127793  0.56396880  0.00680630     0.79100
C539        C  0.55908161  0.47651638  0.99531340     0.78100
Zn540      Zn  0.00374238  0.51037274  0.50850341     1.49700
Zn541      Zn  0.95464611  0.48037633  0.52861292     1.49400
Zn542      Zn  0.95337396  0.51271171  0.48008803     1.49100
Zn543      Zn  0.98335501  0.46214493  0.47869227     1.49500
O544        O  0.97395345  0.49100441  0.49941853    -1.83100
O545        O  0.00611874  0.51147400  0.54571596    -0.73800
O546        O  0.91870440  0.49472386  0.52842800    -0.73600
O547        O  0.96510516  0.54795893  0.48013252    -0.73100
O548        O  0.97373642  0.49006740  0.56004717    -0.73800
O549        O  0.00363306  0.54612430  0.49449877    -0.73400
O550        O  0.91874836  0.51292426  0.49141212    -0.74000
O551        O  0.97255167  0.46620111  0.44217808    -0.73400
O552        O  0.95380056  0.44226354  0.52928472    -0.74100
O553        O  0.95311703  0.50256709  0.44495729    -0.73500
O554        O  0.97077153  0.42993628  0.49375366    -0.74000
O555        O  0.02040866  0.45760145  0.48034349    -0.73900
O556        O  0.03507723  0.49203292  0.49856243    -0.73700
C557        C  0.99412723  0.50180643  0.56364823     0.78100
C558        C  0.90748407  0.50645347  0.51098269     0.78600
C559        C  0.98584644  0.55835829  0.48464132     0.77600
C560        C  0.96089040  0.48432209  0.43207215     0.77900
C561        C  0.96115664  0.42489468  0.51474718     0.79100
C562        C  0.03847280  0.47049444  0.48889390     0.78100
C563        C  0.20774373  0.38959793  0.50715191     0.87500
C564        C  0.21295598  0.37314907  0.53023099    -0.52800
C565        C  0.23557922  0.36161974  0.52993411     0.10400
C566        C  0.25103044  0.36757815  0.50681853     0.21300
C567        C  0.22991458  0.40778948  0.50668372    -0.53500
C568        C  0.25259562  0.39646499  0.50669697     0.10500
C569        C  0.21160438  0.37179496  0.48507575    -0.53000
C570        C  0.23406684  0.36027593  0.48480929     0.11100
H571        H  0.20055207  0.37073559  0.54573272     0.15600
H572        H  0.26938928  0.35827373  0.50651925     0.01300
H573        H  0.22772517  0.42797700  0.50771954     0.15900
H574        H  0.19756561  0.36838940  0.47087434     0.15700
Zn575      Zn  0.49600805  0.53223222  0.48885867     1.49700
Zn576      Zn  0.51473699  0.48046896  0.51403735     1.49400
Zn577      Zn  0.46636656  0.50960635  0.53677358     1.49100
Zn578      Zn  0.46446940  0.48245303  0.48428769     1.49500
O579        O  0.48557514  0.50147625  0.50638689    -1.83100
O580        O  0.53333202  0.53371578  0.48690314    -0.73800
O581        O  0.51849590  0.47811045  0.55125225    -0.73600
O582        O  0.46437295  0.54779939  0.54057943    -0.73100
O583        O  0.54642837  0.49779926  0.50282096    -0.73800
O584        O  0.48552236  0.56301825  0.50864422    -0.73400
O585        O  0.48631107  0.49831500  0.56729047    -0.74000
O586        O  0.43129975  0.47692942  0.49835435    -0.73400
O587        O  0.51314987  0.44537573  0.49775512    -0.74100
O588        O  0.43059157  0.49397497  0.53595461    -0.73500
O589        O  0.47855563  0.44923926  0.47572125    -0.74000
O590        O  0.45910428  0.49957124  0.45230776    -0.73900
O591        O  0.48247541  0.53387797  0.45305650    -0.73700
C592        C  0.55090823  0.51906577  0.49305125     0.78100
C593        C  0.50684509  0.48671663  0.56995186     0.78600
C594        C  0.47349312  0.56637447  0.52874177     0.77600
C595        C  0.41982718  0.48194792  0.51824497     0.77900
C596        C  0.49748959  0.43667639  0.48201038     0.79100
C597        C  0.46748701  0.51905369  0.44186830     0.78100
C598        C  0.40392439  0.49237898  0.22249544     0.87500
C599        C  0.38459803  0.51337941  0.22490690    -0.52800
C600        C  0.37026132  0.51198516  0.24575067     0.10400
C601        C  0.37702199  0.48976352  0.26268098     0.21300
C602        C  0.41904664  0.49471340  0.24683024    -0.53500
C603        C  0.40500082  0.49353538  0.26793047     0.10500
C604        C  0.38937478  0.46795932  0.22505960    -0.53000
C605        C  0.37534268  0.46639012  0.24583768     0.11100
H606        H  0.38336466  0.52877670  0.21184613     0.15600
H607        H  0.36539427  0.48848056  0.27955226     0.01300
H608        H  0.43880835  0.49832624  0.24758696     0.15900
H609        H  0.38999778  0.45301133  0.21130442     0.15700
C610        C  0.99683564  0.72060814  0.88108444     0.87500
C611        C  0.01831516  0.72682731  0.86315943    -0.52800
C612        C  0.01688406  0.75016720  0.85263852     0.10400
C613        C  0.99397422  0.76513878  0.86091849     0.21300
C614        C  0.99713492  0.74229605  0.89985342    -0.53500
C615        C  0.99622378  0.76573758  0.88964276     0.10500
C616        C  0.97356835  0.72460211  0.86527076    -0.53000
C617        C  0.97176752  0.74770276  0.85488808     0.11100
H618        H  0.03359464  0.71447006  0.85911149     0.15600
H619        H  0.99258489  0.78370267  0.85189813     0.01300
H620        H  0.99877308  0.73911436  0.91970992     0.15900
H621        H  0.95949079  0.71022418  0.86246607     0.15700
Zn622      Zn  0.21232687  0.74889050  0.76128351     1.49700
Zn623      Zn  0.24031538  0.74772250  0.70982310     1.49400
Zn624      Zn  0.21783260  0.79974277  0.73254380     1.49100
Zn625      Zn  0.26557154  0.77351580  0.75881310     1.49500
O626        O  0.23429061  0.76767916  0.74031673    -1.83100
O627        O  0.20386900  0.71585331  0.74666763    -0.73800
O628        O  0.22975902  0.76774176  0.67949696    -0.73600
O629        O  0.18301523  0.80282650  0.74812414    -0.73100
O630        O  0.22248943  0.71325045  0.71021121    -0.73800
O631        O  0.18053464  0.76612642  0.76725118    -0.73400
O632        O  0.21510485  0.80316225  0.69541599    -0.74000
O633        O  0.27260357  0.81087072  0.76022762    -0.73400
O634        O  0.27737955  0.74305487  0.70537128    -0.74100
O635        O  0.24003146  0.82902818  0.74249025    -0.73500
O636        O  0.29448993  0.75948831  0.73943576    -0.74000
O637        O  0.26507711  0.75869005  0.79422790    -0.73900
O638        O  0.22687746  0.74316034  0.79449698    -0.73700
C639        C  0.20840245  0.70388090  0.72680768     0.78100
C640        C  0.22104996  0.78975729  0.67675891     0.78600
C641        C  0.17121123  0.78705049  0.76139793     0.77600
C642        C  0.26152653  0.83043916  0.75242355     0.77900
C643        C  0.29650016  0.74902778  0.71819363     0.79100
C644        C  0.24739030  0.74750911  0.80536043     0.78100
C645        C  0.51354854  0.75713719  0.65200982     0.87500
C646        C  0.51425407  0.77818670  0.63285424    -0.52800
C647        C  0.49544595  0.77776389  0.61588117     0.10400
C648        C  0.47710502  0.75564934  0.61950298     0.21300
C649        C  0.48751602  0.75886531  0.66353115    -0.53500
C650        C  0.46850671  0.75803481  0.64667163     0.10500
C651        C  0.51238613  0.73282357  0.63656277    -0.53000
C652        C  0.49323696  0.73170328  0.61965691     0.11100
H653        H  0.52834626  0.79280170  0.63309876     0.15600
H654        H  0.46158563  0.75516834  0.60584978     0.01300
H655        H  0.48373829  0.75893813  0.68323561     0.15900
H656        H  0.52543632  0.71762316  0.63916930     0.15700
C657        C  0.34892520  0.74273984  0.67166323    -0.27200
C658        C  0.36989436  0.74603167  0.68693685     0.06400
C659        C  0.36660316  0.74782301  0.71282021     0.26000
C660        C  0.34277211  0.74758684  0.72295581    -0.11700
C661        C  0.32166505  0.74537477  0.70759590    -0.25700
C662        C  0.32507889  0.74236720  0.68177783     0.36800
C663        C  0.39484514  0.74932384  0.67569597     0.06400
F664        F  0.38644057  0.75009873  0.72833103    -0.19400
H665        H  0.34083325  0.74975285  0.74286551     0.16200
F666        F  0.30539220  0.74057760  0.66603119    -0.23200
H667        H  0.35092066  0.74156915  0.65168172     0.18000
C668        C  0.40378771  0.73265907  0.65750027     0.26000
C669        C  0.42730102  0.73630954  0.64710836    -0.11700
C670        C  0.44235550  0.75640531  0.65488173    -0.25700
C671        C  0.43325235  0.77328862  0.67268657     0.36900
C672        C  0.40972201  0.76982623  0.68283824    -0.27300
F673        F  0.39025092  0.71229675  0.65053549    -0.19500
H674        H  0.43419061  0.72282882  0.63376982     0.16200
F675        F  0.44719944  0.79313357  0.68032032    -0.23200
H676        H  0.40307461  0.78325893  0.69634110     0.18000
C677        C  0.06516721  0.79323616  0.82360509    -0.27200
C678        C  0.07633987  0.77726187  0.80618254     0.06400
C679        C  0.06690336  0.75276262  0.80330288     0.26000
C680        C  0.04714596  0.74441947  0.81787343    -0.11700
C681        C  0.03635828  0.76016980  0.83572501    -0.25700
C682        C  0.04535043  0.78488344  0.83818365     0.36800
C683        C  0.09933562  0.78517341  0.79307705     0.06400
F684        F  0.07770379  0.73632548  0.78746363    -0.19400
H685        H  0.04056508  0.72535732  0.81551315     0.16200
F686        F  0.03607109  0.80055603  0.85566561    -0.23200
H687        H  0.07223319  0.81207295  0.82636005     0.18000
C688        C  0.10228956  0.78123751  0.76735223     0.26000
C689        C  0.12553585  0.78456117  0.75631142    -0.11700
C690        C  0.14609024  0.79209350  0.77062932    -0.25700
C691        C  0.14277561  0.79775147  0.79589079     0.36900
C692        C  0.11956382  0.79451690  0.80693334    -0.27300
F693        F  0.08298818  0.77313554  0.75311068    -0.19500
H694        H  0.12786402  0.77960718  0.73693024     0.16200
F695        F  0.16246237  0.80448053  0.81030915    -0.23200
H696        H  0.11784338  0.79765799  0.82674144     0.18000
C697        C  0.48418674  0.66289926  0.60228594    -0.27200
C698        C  0.47758167  0.66411920  0.57702516     0.06400
C699        C  0.47517088  0.68795190  0.56601673     0.26000
C700        C  0.47990925  0.70986720  0.57994819    -0.11700
C701        C  0.48732851  0.70848794  0.60501204    -0.25700
C702        C  0.48894611  0.68466178  0.61612751     0.36800
C703        C  0.47380187  0.64029481  0.56266641     0.06400
F704        F  0.46786770  0.69009511  0.54193916    -0.19400
H705        H  0.47819060  0.72792619  0.57100921     0.16200
F706        F  0.49459874  0.68230740  0.64061959    -0.23200
H707        H  0.48602878  0.64490120  0.61133139     0.18000
C708        C  0.48635760  0.63578587  0.54025304     0.26000
C709        C  0.48509893  0.61216321  0.52872997    -0.11700
C710        C  0.47148817  0.59231223  0.53928245    -0.25700
C711        C  0.45804838  0.59721681  0.56116090     0.36900
C712        C  0.45927939  0.62086004  0.57261994    -0.27300
F713        F  0.50121861  0.65364153  0.53030166    -0.19500
H714        H  0.49577092  0.60914334  0.51202826     0.16200
F715        F  0.44426486  0.57902271  0.57202011    -0.23200
H716        H  0.44927338  0.62383344  0.58975034     0.18000
C717        C  0.41669280  0.49128954  0.33760429    -0.27200
C718        C  0.43369129  0.51109671  0.34109403     0.06400
C719        C  0.44189969  0.52439475  0.32018401     0.26000
C720        C  0.43281175  0.51830326  0.29647888    -0.11700
C721        C  0.41538766  0.49886232  0.29309877    -0.25700
C722        C  0.40749726  0.48530325  0.31393514     0.36800
C723        C  0.44251732  0.51759859  0.36660265     0.06400
F724        F  0.45801823  0.54383855  0.32272334    -0.19400
H725        H  0.43892649  0.52931161  0.28079377     0.16200
F726        F  0.39134231  0.46589032  0.31141889    -0.23200
H727        H  0.41057858  0.48028638  0.35329892     0.18000
C728        C  0.42553906  0.51938808  0.38624261     0.26000
C729        C  0.43394848  0.52200006  0.41068592    -0.11700
C730        C  0.45936189  0.52342528  0.41609219    -0.25700
C731        C  0.47638642  0.52349820  0.39647007     0.36900
C732        C  0.46798340  0.52049614  0.37188097    -0.27300
F733        F  0.40077419  0.51784185  0.38189696    -0.19500
H734        H  0.42058549  0.52176796  0.42562125     0.16200
F735        F  0.50111635  0.52421809  0.40122043    -0.23200
H736        H  0.48146315  0.51904120  0.35714401     0.18000
C737        C  0.35727828  0.45707319  0.54117597    -0.27200
C738        C  0.34516801  0.45183077  0.51838033     0.06400
C739        C  0.35725165  0.45829915  0.49623651     0.26000
C740        C  0.38085252  0.46898315  0.49684550    -0.11700
C741        C  0.39347603  0.47343560  0.51942941    -0.25700
C742        C  0.38121784  0.46781896  0.54175429     0.36800
C743        C  0.32061126  0.43869894  0.51719690     0.06400
F744        F  0.34685292  0.45308651  0.47374835    -0.19400
H745        H  0.38958456  0.47321457  0.47927686     0.16200
F746        F  0.39267709  0.47163876  0.56397389    -0.23200
H747        H  0.34832331  0.45256943  0.55854742     0.18000
C748        C  0.31619158  0.41655203  0.53067719     0.26000
C749        C  0.29423031  0.40280808  0.52693939    -0.11700
C750        C  0.27613742  0.41088508  0.50987660    -0.25700
C751        C  0.28025480  0.43330346  0.49685691     0.36900
C752        C  0.30210523  0.44706872  0.50065496    -0.27300
F753        F  0.33344458  0.40764297  0.54679638    -0.19500
H754        H  0.29130168  0.38586231  0.53755411     0.16200
F755        F  0.26354042  0.44151390  0.47980194    -0.23200
H756        H  0.30475531  0.46418772  0.49025031     0.18000
C757        C  0.09029785  0.42303318  0.49433052    -0.27200
C758        C  0.11140931  0.43844480  0.49512133     0.06400
C759        C  0.10855727  0.46447038  0.49229033     0.26000
C760        C  0.08485684  0.47485425  0.48963187    -0.11700
C761        C  0.06366395  0.45943396  0.48916829    -0.25700
C762        C  0.06669336  0.43329929  0.49126983     0.36800
C763        C  0.13618488  0.42710099  0.49917002     0.06400
F764        F  0.12859578  0.47991093  0.49301552    -0.19400
H765        H  0.08304276  0.49499732  0.48820699     0.16200
F766        F  0.04677766  0.41767694  0.49163196    -0.23200
H767        H  0.09210691  0.40293048  0.49628446     0.18000
C768        C  0.14072342  0.41167435  0.51979317     0.26000
C769        C  0.16368342  0.39992096  0.52286629    -0.11700
C770        C  0.18275456  0.40313625  0.50532908    -0.25700
C771        C  0.17804238  0.41895742  0.48480508     0.36900
C772        C  0.15513755  0.43083757  0.48191155    -0.27300
F773        F  0.12290673  0.40803605  0.53711515    -0.19500
H774        H  0.16587936  0.38809727  0.53887091     0.16200
F775        F  0.19555739  0.42261672  0.46718469    -0.23200
H776        H  0.15196949  0.44249348  0.46577912     0.18000
C777        C  0.47584072  0.49463054  0.12122599    -0.27200
C778        C  0.45339186  0.48251352  0.12664321     0.06400
C779        C  0.44128666  0.46885685  0.10765527     0.26000
C780        C  0.45053398  0.46891656  0.08344990    -0.11700
C781        C  0.47221803  0.48229773  0.07762639    -0.25700
C782        C  0.48529767  0.49444597  0.09706095     0.36800
C783        C  0.44163255  0.48585173  0.15136025     0.06400
F784        F  0.42020063  0.45580743  0.11239047    -0.19400
H785        H  0.44025469  0.45901362  0.06908844     0.16200
F786        F  0.50651051  0.50735849  0.09259505    -0.23200
H787        H  0.48550549  0.50531542  0.13545983     0.18000
C788        C  0.45504508  0.48295791  0.17366917     0.26000
C789        C  0.44335543  0.48620464  0.19664418    -0.11700
C790        C  0.41800722  0.49246089  0.19793852    -0.25700
C791        C  0.40469609  0.49494757  0.17538692     0.36900
C792        C  0.41650129  0.49223704  0.15258729    -0.27300
F793        F  0.47915222  0.47583206  0.17332269    -0.19500
H794        H  0.45409976  0.48256138  0.21322321     0.16200
F795        F  0.37991311  0.49917920  0.17524164    -0.23200
H796        H  0.40576688  0.49486894  0.13572475     0.18000
C797        C  0.99319574  0.60128260  0.91300108    -0.27200
C798        C  0.99174200  0.62225696  0.92867640     0.06400
C799        C  0.98844329  0.61861516  0.95435587     0.26000
C800        C  0.98747676  0.59426999  0.96415179    -0.11700
C801        C  0.98995300  0.57336004  0.94846643    -0.25700
C802        C  0.99237739  0.57709109  0.92274810     0.36800
C803        C  0.99400511  0.64769934  0.91788398     0.06400
F804        F  0.98748855  0.63855021  0.97004172    -0.19400
H805        H  0.98608181  0.59177550  0.98405962     0.16200
F806        F  0.99436091  0.55723100  0.90706624    -0.23200
H807        H  0.99531789  0.60368721  0.89314713     0.18000
C808        C  0.01485108  0.65436676  0.90383259     0.26000
C809        C  0.01614472  0.67771776  0.89211918    -0.11700
C810        C  0.99659728  0.69505533  0.89408659    -0.25700
C811        C  0.97608191  0.68842464  0.90899378     0.36900
C812        C  0.97484181  0.66504869  0.92061376    -0.27300
F813        F  0.03416627  0.63831710  0.90165286    -0.19500
H814        H  0.03266520  0.68183151  0.88177560     0.16200
F815        F  0.95687267  0.70447157  0.91198800    -0.23200
H816        H  0.95860171  0.66026157  0.93134456     0.18000
C817        C  0.49365627  0.38435744  0.43440713    -0.27200
C818        C  0.50461644  0.36420372  0.44691709     0.06400
C819        C  0.51444534  0.36826371  0.47096563     0.26000
C820        C  0.51271303  0.39197437  0.48231936    -0.11700
C821        C  0.50102214  0.41188660  0.46993946    -0.25700
C822        C  0.49177849  0.40782158  0.44568591     0.36800
C823        C  0.50626599  0.33951478  0.43405305     0.06400
F824        F  0.52506013  0.34918390  0.48372740    -0.19400
H825        H  0.51993615  0.39459827  0.50097838     0.16200
F826        F  0.48126891  0.42672444  0.43254810    -0.23200
H827        H  0.48668724  0.38199304  0.41561277     0.18000
C828        C  0.48544612  0.32908398  0.42179188     0.26000
C829        C  0.48786231  0.30775589  0.40677732    -0.11700
C830        C  0.51104791  0.29651307  0.40353954    -0.25700
C831        C  0.53157963  0.30603752  0.41696919     0.36900
C832        C  0.52916055  0.32733681  0.43200780    -0.27300
F833        F  0.46282860  0.33988044  0.42388138    -0.19500
H834        H  0.47178964  0.30074404  0.39677256     0.16200
F835        F  0.55410699  0.29496674  0.41529948    -0.23200
H836        H  0.54545541  0.33493208  0.44122125     0.18000
C837        C  0.47475237  0.83796315  0.58484088    -0.27200
C838        C  0.49553084  0.84363944  0.57023622     0.06400
C839        C  0.51478812  0.82614559  0.56866146     0.26000
C840        C  0.51367566  0.80377781  0.58214232    -0.11700
C841        C  0.49332232  0.79835037  0.59741958    -0.25700
C842        C  0.47362043  0.81548267  0.59837431     0.36800
C843        C  0.49795619  0.86841208  0.55796508     0.06400
F844        F  0.53513314  0.83119138  0.55483796    -0.19400
H845        H  0.52927473  0.79108949  0.58153522     0.16200
F846        F  0.45425703  0.81140077  0.61382212    -0.23200
H847        H  0.45985413  0.85138413  0.58647631     0.18000
C848        C  0.48815193  0.87255445  0.53411766     0.26000
C849        C  0.49084507  0.89601039  0.52267074    -0.11700
C850        C  0.50333628  0.91588683  0.53480488    -0.25700
C851        C  0.51351119  0.91139298  0.55865842     0.36900
C852        C  0.51083365  0.88790985  0.56997576    -0.27300
F853        F  0.47586637  0.85391526  0.52196333    -0.19500
H854        H  0.48267868  0.89872806  0.50444857     0.16200
F855        F  0.52582065  0.92970006  0.57130734    -0.23200
H856        H  0.51871824  0.88495002  0.58829585     0.18000
C857        C  0.48913179  0.11893683  0.42452102    -0.27200
C858        C  0.48573821  0.14134234  0.43760474     0.06400
C859        C  0.47853232  0.14049574  0.46265767     0.26000
C860        C  0.47597870  0.11733900  0.47475623    -0.11700
C861        C  0.48085647  0.09494829  0.46196047    -0.25700
C862        C  0.48680397  0.09594155  0.43654743     0.36800
C863        C  0.49185238  0.16525780  0.42531212     0.06400
F864        F  0.47522895  0.16203657  0.47565438    -0.19400
H865        H  0.47172458  0.11696602  0.49438882     0.16200
F866        F  0.49135616  0.07458986  0.42358982    -0.23200
H867        H  0.49458845  0.11931936  0.40518647     0.18000
C868        C  0.51653484  0.17364110  0.42454455     0.26000
C869        C  0.52282712  0.19500415  0.41091403    -0.11700
C870        C  0.50459405  0.20839754  0.39786118    -0.25700
C871        C  0.47978089  0.19998722  0.39884969     0.36900
C872        C  0.47355581  0.17857532  0.41245562    -0.27300
F873        F  0.53460569  0.16081818  0.43661749    -0.19500
H874        H  0.54199887  0.20105384  0.41048043     0.16200
F875        F  0.46167009  0.21157938  0.38569802    -0.23200
H876        H  0.45453855  0.17199693  0.41245648     0.18000
C877        C  0.37181842  0.03496614  0.02505643    -0.27200
C878        C  0.36858924  0.05910994  0.03504374     0.06400
C879        C  0.38818220  0.06992368  0.04889587     0.26000
C880        C  0.41123154  0.05797673  0.05033802    -0.11700
C881        C  0.41501828  0.03487986  0.03845835    -0.25700
C882        C  0.39486702  0.02299846  0.02661141     0.36800
C883        C  0.34610588  0.07389421  0.02832831     0.06400
F884        F  0.38543911  0.09264383  0.05993097    -0.19400
H885        H  0.42662648  0.06758645  0.05927977     0.16200
F886        F  0.39807125  0.00080045  0.01471904    -0.23200
H887        H  0.35704949  0.02615827  0.01440960     0.18000
C888        C  0.34855895  0.09780602  0.01760585     0.26000
C889        C  0.32768491  0.11092569  0.00942080    -0.11700
C890        C  0.30381014  0.10057860  0.01148769    -0.25700
C891        C  0.30124283  0.07672819  0.02234813     0.36900
C892        C  0.32221798  0.06352230  0.03054827    -0.27300
F893        F  0.37127259  0.10813139  0.01400411    -0.19500
H894        H  0.33026327  0.12933220  0.00142547     0.16200
F895        F  0.27862437  0.06570840  0.02416375    -0.23200
H896        H  0.31983681  0.04503250  0.03842522     0.18000
C897        C  0.02859612  0.97495110  0.38236554    -0.27200
C898        C  0.04640700  0.99334417  0.37694378     0.06400
C899        C  0.04832998  0.01454866  0.39244589     0.26000
C900        C  0.03353577  0.01662920  0.41362128    -0.11700
C901        C  0.01619171  0.99788387  0.41951640    -0.25700
C902        C  0.01349372  0.97720722  0.40332619     0.36800
C903        C  0.06336884  0.99010522  0.35554473     0.06400
F904        F  0.06543590  0.03262834  0.38783257    -0.19400
H905        H  0.03617895  0.03257836  0.42587160     0.16200
F906        F  0.99750334  0.95829662  0.40863045    -0.23200
H907        H  0.02670363  0.95856574  0.37055937     0.18000
C908        C  0.07857986  0.96887752  0.35350520     0.26000
C909        C  0.09520194  0.96650578  0.33370819    -0.11700
C910        C  0.09686782  0.98517880  0.31529902    -0.25700
C911        C  0.08112277  0.00621242  0.31736944     0.36900
C912        C  0.06480337  0.00863719  0.33727165    -0.27300
F913        F  0.07784407  0.95069341  0.37105757    -0.19500
H914        H  0.10655598  0.94996056  0.33316814     0.16200
F915        F  0.08151026  0.02459732  0.29999805    -0.23200
H916        H  0.05309866  0.02503619  0.33835259     0.18000
C917        C  0.32037782  0.42234667  0.24874145    -0.27200
C918        C  0.33227384  0.39893143  0.24906688     0.06400
C919        C  0.35824026  0.39819832  0.25112095     0.26000
C920        C  0.37202065  0.42040544  0.25171633    -0.11700
C921        C  0.36022387  0.44374504  0.25048676    -0.25700
C922        C  0.33424775  0.44464119  0.24941118     0.36800
C923        C  0.31774626  0.37528665  0.24718762     0.06400
F924        F  0.37029636  0.37597000  0.25240169    -0.19400
H925        H  0.39206315  0.41941969  0.25235410     0.16200
F926        F  0.32244235  0.46694546  0.24734997    -0.23200
H927        H  0.30039389  0.42333428  0.24710107     0.18000
C928        C  0.29861467  0.37023070  0.26397668     0.26000
C929        C  0.28630863  0.34714237  0.26332634    -0.11700
C930        C  0.29282202  0.32847386  0.24600577    -0.01700
C931        C  0.31135976  0.33393935  0.22852348     0.36900
C932        C  0.32366026  0.35713648  0.22917787    -0.27300
F933        F  0.29269500  0.38710076  0.28188540    -0.19500
H934        H  0.27224895  0.34355813  0.27714267     0.16200
F935        F  0.31778059  0.31688678  0.21097113    -0.23200
H936        H  0.33809133  0.36084880  0.21577814     0.18000
C937        C  0.25831469  0.33282564  0.42500639    -0.27200
C938        C  0.24471501  0.31032534  0.42324418     0.06400
C939        C  0.23000196  0.30295819  0.44341847     0.26000
C940        C  0.22764997  0.31873986  0.46415992    -0.11700
C941        C  0.24032264  0.34177527  0.46529350    -0.25700
C942        C  0.25625462  0.34838316  0.44590984     0.36800
C943        C  0.24363686  0.29648243  0.39923152     0.06400
F944        F  0.21656850  0.28142350  0.44229645    -0.19400
H945        H  0.21515000  0.31348315  0.47893629     0.16200
F946        F  0.26843444  0.37067875  0.44642815    -0.23200
H947        H  0.26976332  0.33882620  0.40966412     0.18000
C948        C  0.23493807  0.30872531  0.37788230     0.26000
C949        C  0.23436808  0.29639518  0.35498254    -0.11700
C950        C  0.24266515  0.27152027  0.35255040    -0.25700
C951        C  0.25082929  0.25895801  0.37414175     0.36900
C952        C  0.25111129  0.27134900  0.39729135    -0.27300
F953        F  0.22688498  0.33275365  0.37919024    -0.19500
H954        H  0.22785129  0.30671942  0.33894938     0.16200
F955        F  0.25919064  0.23505455  0.37286153    -0.23200
H956        H  0.25776324  0.26154791  0.41359607     0.18000
C957        C  0.43587826  0.22426358  0.31703508    -0.27200
C958        C  0.41520220  0.23708072  0.32600084     0.06400
C959        C  0.41843897  0.25518128  0.34487101     0.26000
C960        C  0.44226864  0.26097686  0.35378706    -0.11700
C961        C  0.46305103  0.24885078  0.34396166    -0.25700
C962        C  0.45952540  0.22989512  0.32596062     0.36800
C963        C  0.39061383  0.23200664  0.31472175     0.06400
F964        F  0.39871532  0.26783066  0.35401299    -0.19400
H965        H  0.44453443  0.27525155  0.36797518     0.16200
F966        F  0.47887381  0.21627422  0.31738939    -0.23200
H967        H  0.43366787  0.20979557  0.30300933     0.18000
C968        C  0.38722092  0.23399225  0.28888372     0.26000
C969        C  0.36385238  0.23011786  0.27824382    -0.11700
C970        C  0.34336941  0.22412643  0.29310310    -0.25700
C971        C  0.34706455  0.22112807  0.31894404     0.36900
C972        C  0.37048082  0.22516208  0.32956917    -0.27300
F973        F  0.40629933  0.24085217  0.27403595    -0.19500
H974        H  0.36165034  0.23270088  0.25839931     0.16200
F975        F  0.32792205  0.21549959  0.33420221    -0.23200
H976        H  0.37285922  0.22320663  0.34947262     0.18000
C977        C  0.17497695  0.06795751  0.24878991    -0.27200
C978        C  0.19169407  0.07364765  0.26826617     0.06400
C979        C  0.19534894  0.05568399  0.28701445     0.26000
C980        C  0.18183053  0.03318684  0.28672404    -0.11700
C981        C  0.16431412  0.02808281  0.26788735    -0.25700
C982        C  0.16127743  0.04555360  0.24868271     0.36800
C983        C  0.20268363  0.09935787  0.27041569     0.06400
F984        F  0.21040626  0.06068564  0.30672718    -0.19400
H985        H  0.18405331  0.02024234  0.30203125     0.16200
F986        F  0.14345597  0.04216754  0.23113569    -0.23200
H987        H  0.17163044  0.08148308  0.23420308     0.18000
C988        C  0.22802645  0.10353081  0.27580189     0.26000
C989        C  0.23741943  0.12809390  0.27826426    -0.11700
C990        C  0.22183614  0.14885126  0.27491322    -0.25700
C991        C  0.19659842  0.14458749  0.26952635     0.36900
C992        C  0.18720232  0.12023354  0.26750251    -0.27300
F993        F  0.24390163  0.08396578  0.27758307    -0.19500
H994        H  0.25704072  0.13089759  0.28166120     0.16200
F995        F  0.18091586  0.16411745  0.26609692    -0.23200
H996        H  0.16761892  0.11769132  0.26367591     0.18000
C997        C  0.24126457  0.19455105  0.13398771    -0.27200
C998        C  0.26353770  0.18911626  0.12200831     0.06400
C999        C  0.28609352  0.19532117  0.13392237     0.26000
C1000       C  0.28616340  0.20601640  0.15783036    -0.11700
C1001       C  0.26375679  0.21071387  0.17015165    -0.25700
C1002       C  0.24125175  0.20523773  0.15764264     0.36800
C1003       C  0.26271095  0.17732368  0.09698891     0.06400
F1004       F  0.30801473  0.19024725  0.12281642    -0.19400
H1005       H  0.30370807  0.20998226  0.16693898     0.16200
F1006       F  0.21901402  0.21021191  0.16818172    -0.23200
H1007       H  0.22369862  0.19055926  0.12490478     0.18000
C1008       C  0.24853723  0.15552811  0.09256330     0.26000
C1009       C  0.24662998  0.14540459  0.06859411    -0.11700
C1010       C  0.25850561  0.15691937  0.04849662    -0.25700
C1011       C  0.27316926  0.17845663  0.05311964     0.36900
C1012       C  0.27511985  0.18850348  0.07709050    -0.27300
F1013       F  0.23669806  0.14387803  0.11149339    -0.19500
H1014       H  0.23560539  0.12868154  0.06578615     0.16200
F1015       F  0.28629540  0.18948731  0.03470341    -0.23200
H1016       H  0.28610233  0.20529579  0.08005751     0.18000
C1017       C  0.99674379  0.83364624  0.91281687    -0.27200
C1018       C  0.01254275  0.83215957  0.93367242     0.06400
C1019       C  0.02250018  0.80880350  0.94008593     0.26000
C1020       C  0.01705273  0.78756209  0.92574562    -0.11700
C1021       C  0.00114759  0.78884452  0.90485958    -0.25700
C1022       C  0.99096503  0.81226664  0.89860598     0.36800
C1023       C  0.01862545  0.85498347  0.94855741     0.06400
F1024       F  0.03817447  0.80662976  0.95979305    -0.19400
H1025       H  0.02588439  0.77014166  0.93082176     0.16200
F1026       F  0.97491456  0.81454225  0.87925193    -0.23200
H1027       H  0.98856216  0.85140986  0.90772227     0.18000
C1028       C  0.02770339  0.87666355  0.93697308     0.26000
C1029       C  0.03222749  0.89845655  0.95082162    -0.11700
C1030       C  0.02756351  0.89935752  0.97655209    -0.25700
C1031       C  0.01933386  0.87729814  0.98831927     0.36900
C1032       C  0.01503693  0.85537108  0.97442298    -0.27300
F1033       F  0.03208439  0.87683737  0.91216427    -0.19500
H1034       H  0.03849713  0.91499602  0.94106630     0.16200
F1035       F  0.01479081  0.87700475  0.01308788    -0.23200
H1036       H  0.00811585  0.83885586  0.98377701     0.18000
C1037       C  0.14172735  0.03846118  0.97776772    -0.27200
C1038       C  0.15698473  0.03898129  0.99912308     0.06400
C1039       C  0.14974111  0.02502747  0.01998520     0.26000
C1040       C  0.12700953  0.01236645  0.02002788    -0.11700
C1041       C  0.11114764  0.01299618  0.99920602    -0.25700
C1042       C  0.11906444  0.02548021  0.97771305     0.36800
C1043       C  0.17919110  0.05567572  0.00022437     0.06400
F1044       F  0.16434388  0.02416415  0.04060275    -0.19400
H1045       H  0.12132676  0.00278780  0.03677864     0.16200
F1046       F  0.10400271  0.02699705  0.95747363    -0.23200
H1047       H  0.14669175  0.04926468  0.96154108     0.18000
C1048       C  0.19620711  0.05647841  0.98056839     0.26000
C1049       C  0.21554263  0.07403461  0.98079212    -0.11700
C1050       C  0.21845480  0.09104137  0.00062525    -0.25700
C1051       C  0.20207561  0.08968757  0.02070025     0.36900
C1052       C  0.18260631  0.07221476  0.02043934    -0.27300
F1053       F  0.19403101  0.04044322  0.96103574    -0.19500
H1054       H  0.22804081  0.07472991  0.96514244     0.16200
F1055       F  0.20377582  0.10635667  0.03969468    -0.23200
H1056       H  0.16951986  0.07236116  0.03559948     0.18000
C1057       C  0.05772839  0.95057946  0.14066922    -0.27200
C1058       C  0.06459422  0.97323558  0.15237172     0.06400
C1059       C  0.05823767  0.99596239  0.14106349     0.26000
C1060       C  0.04666979  0.99603342  0.11789732    -0.11700
C1061       C  0.04128633  0.97350252  0.10523437    -0.25700
C1062       C  0.04609822  0.95065654  0.11721450     0.36800
C1063       C  0.07875891  0.97352187  0.17606879     0.06400
F1064       F  0.06355309  0.01820152  0.15227388    -0.19400
H1065       H  0.04270270  0.01396999  0.10941940     0.16200
F1066       F  0.04097705  0.92854582  0.10574115    -0.23200
H1067       H  0.06228075  0.93284758  0.14923948     0.18000
C1068       C  0.06992037  0.96094731  0.19704764     0.26000
C1069       C  0.08207668  0.96369952  0.21991419    -0.11700
C1070       C  0.10327652  0.97909800  0.22242806    -0.25700
C1071       C  0.11296830  0.99036469  0.20097231     0.36900
C1072       C  0.10067754  0.98772700  0.17812471    -0.27300
F1073       F  0.04889338  0.94695119  0.19571931    -0.19500
H1074       H  0.07462909  0.95388656  0.23578329     0.16200
F1075       F  0.13371935  0.00466945  0.20199092    -0.23200
H1076       H  0.10806840  0.99718998  0.16199706     0.18000
C1077       C  0.00088876  0.31699671  0.06140722    -0.27200
C1078       C  0.02378751  0.32345897  0.05078746     0.06400
C1079       C  0.04472112  0.30901067  0.05662912     0.26000
C1080       C  0.04295188  0.28950277  0.07379912    -0.11700
C1081       C  0.02039358  0.28412951  0.08568885    -0.25700
C1082       C  0.99918311  0.29754484  0.07873819     0.36800
C1083       C  0.02602125  0.34664478  0.03571135     0.06400
F1084       F  0.06704047  0.31425397  0.04634313    -0.19400
H1085       H  0.05956396  0.27928761  0.07875145     0.16200
F1086       F  0.97734685  0.29350066  0.09028759    -0.23200
H1087       H  0.98456090  0.32805000  0.05744951     0.18000
C1088       C  0.00932493  0.35160406  0.01621134     0.26000
C1089       C  0.00961481  0.37486054  0.00429057    -0.11700
C1090       C  0.02634290  0.39380447  0.01173488    -0.25700
C1091       C  0.04387280  0.38836871  0.03046180     0.36900
C1092       C  0.04368863  0.36500642  0.04223015    -0.27300
F1093       F  0.99234307  0.33414238  0.00905489    -0.19500
H1094       H  0.99588529  0.37841768  0.98997374     0.16200
F1095       F  0.06074605  0.40581263  0.03793591    -0.23200
H1096       H  0.05667349  0.36168765  0.05728804     0.18000
C1097       C  0.14104266  0.28696218  0.20672224    -0.27200
C1098       C  0.12190104  0.27023162  0.21288632     0.06400
C1099       C  0.12505466  0.25383751  0.23298888     0.26000
C1100       C  0.14774399  0.25285186  0.24542750    -0.11700
C1101       C  0.16737668  0.26841086  0.23824499    -0.25700
C1102       C  0.16369176  0.28620679  0.21947238     0.36800
C1103       C  0.10028599  0.26722172  0.19627091     0.06400
F1104       F  0.10708062  0.23709614  0.23898684    -0.19400
H1105       H  0.15056807  0.23873047  0.25957420     0.16200
F1106       F  0.18269305  0.30096472  0.21181595    -0.23200
H1107       H  0.13887296  0.29959797  0.19115890     0.18000
C1108       C  0.07611103  0.26941030  0.20526674     0.26000
C1109       C  0.05587440  0.26429787  0.18971080    -0.11700
C1110       C  0.05935506  0.25664642  0.16481520    -0.25700
C1111       C  0.08386671  0.25482731  0.15596631     0.36900
C1112       C  0.10399144  0.26009352  0.17152966    -0.27300
F1113       F  0.07209076  0.27675829  0.22907467    -0.19500
H1114       H  0.03772899  0.26690448  0.19755008     0.16200
F1115       F  0.08839592  0.24805507  0.13208367    -0.23200
H1116       H  0.12261713  0.25808257  0.16437664     0.18000
C1117       C  0.98683653  0.11766448  0.05688604    -0.27200
C1118       C  0.00954606  0.12981719  0.06152129     0.06400
C1119       C  0.03161894  0.11833650  0.05425046     0.26000
C1120       C  0.03108721  0.09460909  0.04336750    -0.11700
C1121       C  0.00853392  0.08173439  0.03958914    -0.25700
C1122       C  0.98625939  0.09374170  0.04591618     0.36800
C1123       C  0.01066148  0.15358734  0.07554874     0.06400
F1124       F  0.05377704  0.12980825  0.05840394    -0.19400
H1125       H  0.04852862  0.08596598  0.03850658     0.16200
F1126       F  0.96416227  0.08185743  0.04290263    -0.23200
H1127       H  0.96966871  0.12634807  0.06255086     0.18000
C1128       C  0.00752584  0.17665777  0.06356817     0.26000
C1129       C  0.01077821  0.19907823  0.07682694    -0.11700
C1130       C  0.01732532  0.19876111  0.10215804    -0.25700
C1131       C  0.01994970  0.17551026  0.11419309     0.36900
C1132       C  0.01677720  0.15317521  0.10089430    -0.27300
F1133       F  0.00196781  0.17745061  0.03895362    -0.19500
H1134       H  0.00870332  0.21670696  0.06715048     0.16200
F1135       F  0.02499149  0.17429932  0.13890629    -0.23200
H1136       H  0.01924136  0.13545787  0.11033906     0.18000
C1137       C  0.95568156  0.36883095  0.55745736    -0.27200
C1138       C  0.97208475  0.35196004  0.54621587     0.06400
C1139       C  0.98141116  0.35755194  0.52256732     0.26000
C1140       C  0.97597074  0.38056616  0.51137717    -0.11700
C1141       C  0.96119256  0.39846403  0.52357158    -0.25700
C1142       C  0.95018050  0.39180818  0.54630595     0.36800
C1143       C  0.98117693  0.32997979  0.56038720     0.06400
F1144       F  0.99735777  0.34168969  0.51118782    -0.19400
H1145       H  0.98476503  0.38500651  0.49390090     0.16200
F1146       F  0.93513859  0.40796623  0.55848074    -0.23200
H1147       H  0.94793084  0.36461843  0.57549009     0.18000
C1148       C  0.99268429  0.33353284  0.58366084     0.26000
C1149       C  0.00085939  0.31302061  0.59746788    -0.11700
C1150       C  0.99772277  0.28848288  0.58844511    -0.25700
C1151       C  0.98673528  0.28490438  0.56485366     0.36900
C1152       C  0.97864401  0.30553686  0.55092596    -0.27300
F1153       F  0.99620469  0.35695584  0.59297945    -0.19500
H1154       H  0.00910381  0.31634565  0.61559076     0.16200
F1155       F  0.98416096  0.26155817  0.55507668    -0.23200
H1156       H  0.97007687  0.30243017  0.53291037     0.18000
C1157       C  0.98698841  0.10779367  0.56995739    -0.27200
C1158       C  0.99622204  0.12653348  0.55424022     0.06400
C1159       C  0.00612846  0.11947134  0.53109519     0.26000
C1160       C  0.00631314  0.09423728  0.52381909    -0.11700
C1161       C  0.99636144  0.07566150  0.53929428    -0.25700
C1162       C  0.98683727  0.08271486  0.56258114     0.36800
C1163       C  0.99659249  0.15301644  0.56295913     0.06400
F1164       F  0.01496104  0.13698430  0.51518812    -0.19400
H1165       H  0.01351749  0.08932540  0.50571905     0.16200
F1166       F  0.97757528  0.06534830  0.57842781    -0.23200
H1167       H  0.98007850  0.11252967  0.58821927     0.18000
C1168       C  0.97609366  0.16345974  0.57532031     0.26000
C1169       C  0.97821591  0.18670726  0.58728588    -0.11700
C1170       C  0.00061566  0.20002185  0.58692439    -0.25700
C1171       C  0.02034933  0.19064042  0.57271168     0.36900
C1172       C  0.01839696  0.16728854  0.56107620    -0.27300
F1173       F  0.95429467  0.15076782  0.57665201    -0.19500
H1174       H  0.96288223  0.19341428  0.59818132     0.16200
F1175       F  0.04203471  0.20351273  0.57115101    -0.23200
H1176       H  0.03449382  0.15979181  0.55178350     0.18000
C1177       C  0.09668478  0.24194551  0.65365617    -0.27200
C1178       C  0.09639097  0.23491018  0.67877006     0.06400
C1179       C  0.07344053  0.23147736  0.69041539     0.26000
C1180       C  0.05133442  0.23517090  0.67728561    -0.11700
C1181       C  0.05138471  0.24257228  0.65210964    -0.25700
C1182       C  0.07457192  0.24538856  0.64038046     0.36800
C1183       C  0.11997554  0.23181837  0.69287846     0.06400
F1184       F  0.07232350  0.22355635  0.71432867    -0.19400
H1185       H  0.03442755  0.23098143  0.68697338     0.16200
F1186       F  0.07591939  0.25090599  0.61581981    -0.23200
H1187       H  0.11412445  0.24484553  0.64423670     0.18000
C1188       C  0.13996446  0.21826650  0.68290966     0.26000
C1189       C  0.16278241  0.21767173  0.69545081    -0.11700
C1190       C  0.16592177  0.23031253  0.71814499    -0.25700
C1191       C  0.14578945  0.24292815  0.72861689     0.36900
C1192       C  0.12302017  0.24361813  0.71611295    -0.27300
F1193       F  0.13762541  0.20609056  0.66082171    -0.19500
H1194       H  0.17836020  0.20837562  0.68686743     0.16200
F1195       F  0.14864846  0.25592398  0.75018028    -0.23200
H1196       H  0.10809816  0.25445541  0.72404673     0.18000
C1197       C  0.28710437  0.31016025  0.62968922    -0.27200
C1198       C  0.26970213  0.30135411  0.61213414     0.06400
C1199       C  0.25664587  0.27910227  0.61687901     0.26000
C1200       C  0.25935375  0.26716356  0.63976890    -0.11700
C1201       C  0.27535780  0.27698238  0.65805387    -0.25700
C1202       C  0.29006329  0.29796099  0.65252044     0.36800
C1203       C  0.26244978  0.31718458  0.59083731     0.06400
F1204       F  0.23945764  0.27035734  0.60043828    -0.19400
H1205       H  0.24754250  0.25128519  0.64396329     0.16200
F1206       F  0.30523232  0.30816695  0.67008846    -0.23200
H1207       H  0.29726006  0.32734299  0.62628882     0.18000
C1208       C  0.25132022  0.34053473  0.59514558     0.26000
C1209       C  0.24256449  0.35479334  0.57526664    -0.11700
C1210       C  0.24489065  0.34611840  0.55075202    -0.25700
C1211       C  0.25620379  0.32283348  0.54638552     0.36900
C1212       C  0.26472641  0.30839188  0.56635646    -0.27300
F1213       F  0.24813966  0.34913313  0.61867809    -0.19500
H1214       H  0.23402280  0.37272618  0.57902194     0.16200
F1215       F  0.25816514  0.31362946  0.52294405    -0.23200
H1216       H  0.27290956  0.29025276  0.56277756     0.18000
C1217       C  0.24642225  0.22927507  0.88410052    -0.27200
C1218       C  0.24461239  0.20315683  0.88657215     0.06400
C1219       C  0.23847511  0.18858076  0.86569197     0.26000
C1220       C  0.23535124  0.19976318  0.84249106    -0.11700
C1221       C  0.23860965  0.22575891  0.83942476    -0.25700
C1222       C  0.24361329  0.24056407  0.86069993     0.36800
C1223       C  0.24980159  0.19074032  0.91059963     0.06400
F1224       F  0.23602527  0.16334709  0.86768056    -0.19400
H1225       H  0.23145585  0.18774410  0.82667477     0.16200
F1226       F  0.24652822  0.26575603  0.85886447    -0.23200
H1227       H  0.25087925  0.24080004  0.90013959     0.18000
C1228       C  0.27031802  0.17485481  0.91316771     0.26000
C1229       C  0.27384759  0.16096188  0.93491866    -0.11700
C1230       C  0.25678592  0.16236889  0.95460968    -0.25700
C1231       C  0.23631361  0.17868485  0.95185036     0.36900
C1232       C  0.23312459  0.19288879  0.93025017    -0.27300
F1233       F  0.28668008  0.17232796  0.89428622    -0.19500
H1234       H  0.28948070  0.14849971  0.93549596     0.16200
F1235       F  0.21882718  0.18031534  0.96978945    -0.23200
H1236       H  0.21702247  0.20480301  0.92843088     0.18000
C1237       C  0.48135289  0.31733393  0.93077420    -0.27200
C1238       C  0.48360249  0.34079925  0.91928893     0.06400
C1239       C  0.49388877  0.34203917  0.89534070     0.26000
C1240       C  0.50117599  0.32015670  0.88306567    -0.11700
C1241       C  0.49876744  0.29664271  0.89450921    -0.25700
C1242       C  0.48892190  0.29549241  0.91863749     0.36800
C1243       C  0.47702409  0.36393917  0.93315213     0.06400
F1244       F  0.49775070  0.36444614  0.88412462    -0.19400
H1245       H  0.50857080  0.32164648  0.86447818     0.16200
F1246       F  0.48739161  0.27341339  0.93095291    -0.23200
H1247       H  0.47389289  0.31594286  0.94935296     0.18000
C1248       C  0.46275693  0.38301563  0.92213361     0.26000
C1249       C  0.45977415  0.40602343  0.93433214    -0.11700
C1250       C  0.47059348  0.41014853  0.95776402    -0.25700
C1251       C  0.48337867  0.39059034  0.96946100     0.36900
C1252       C  0.48644931  0.36766100  0.95729818    -0.27300
F1253       F  0.45247850  0.37975295  0.89925060    -0.19500
H1254       H  0.45038631  0.42115267  0.92481977     0.16200
F1255       F  0.49478965  0.39446210  0.99171837    -0.23200
H1256       H  0.49755109  0.35333710  0.96615313     0.18000
C1257       C  0.49538619  0.14557948  0.97999449    -0.27200
C1258       C  0.51427503  0.15247129  0.96355974     0.06400
C1259       C  0.53541249  0.13708043  0.96177977     0.26000
C1260       C  0.53677167  0.11457655  0.97506802    -0.11700
C1261       C  0.51698008  0.10687796  0.98998380    -0.25700
C1262       C  0.49658843  0.12295095  0.99292804     0.36800
C1263       C  0.51113683  0.17458219  0.94705147     0.06400
F1264       F  0.55387610  0.14274333  0.94571940    -0.19400
H1265       H  0.55241610  0.10228312  0.97219102     0.16200
F1266       F  0.47728357  0.11621443  0.00753837    -0.23200
H1267       H  0.47922816  0.15732713  0.98215488     0.18000
C1268       C  0.48928573  0.17785552  0.93283406     0.26000
C1269       C  0.48791018  0.19677449  0.91486607    -0.11700
C1270       C  0.50830020  0.21245932  0.91066707    -0.25700
C1271       C  0.52940647  0.21033515  0.92601333     0.36900
C1272       C  0.53073054  0.19163586  0.94404350    -0.27300
F1273       F  0.46994307  0.16169846  0.93500661    -0.19500
H1274       H  0.47155949  0.19812172  0.90316227     0.16200
F1275       F  0.54913197  0.22586941  0.92295596    -0.23200
H1276       H  0.54743635  0.18998838  0.95517659     0.18000
C1277       C  0.42349636  0.23799614  0.81678651    -0.27200
C1278       C  0.41105513  0.26031278  0.82279204     0.06400
C1279       C  0.42150016  0.27633829  0.84090237     0.26000
C1280       C  0.44426386  0.27046027  0.85203644    -0.11700
C1281       C  0.45715363  0.24873350  0.84512668    -0.25700
C1282       C  0.44641201  0.23234105  0.82764929     0.36800
C1283       C  0.38739564  0.26659405  0.80990268     0.06400
F1284       F  0.41034881  0.29824683  0.84696802    -0.19400
H1285       H  0.45235734  0.28351521  0.86526546     0.16200
F1286       F  0.45812692  0.21090518  0.82104987    -0.23200
H1287       H  0.41552710  0.22497387  0.80344737     0.18000
C1288       C  0.38518696  0.26407492  0.78394364     0.26000
C1289       C  0.36223206  0.26709932  0.77219064    -0.11700
C1290       C  0.34095720  0.27294329  0.78594554    -0.25700
C1291       C  0.34352273  0.27726029  0.81171310     0.36900
C1292       C  0.36650429  0.27395431  0.82351533    -0.27300
F1293       F  0.40517802  0.25823613  0.76992776    -0.19500
H1294       H  0.36097277  0.26399261  0.75231930     0.16200
F1295       F  0.32359490  0.28303670  0.82583940    -0.23200
H1296       H  0.36767651  0.27601055  0.84351606     0.18000
C1297       C  0.56821614  0.00351269  0.32690261    -0.27200
C1298       C  0.57058926  0.98505871  0.34517301     0.06400
C1299       C  0.58978711  0.96759227  0.34348403     0.26000
C1300       C  0.60642632  0.96857557  0.32372352    -0.11700
C1301       C  0.60424205  0.98709755  0.30516016    -0.25700
C1302       C  0.58485340  0.00468091  0.30723184     0.36800
C1303       C  0.55559902  0.98667762  0.36788125     0.06400
F1304       F  0.59315447  0.95030011  0.36162181    -0.19400
H1305       H  0.62094181  0.95482588  0.32359753     0.16200
F1306       F  0.58190874  0.02304276  0.29006803    -0.23200
H1307       H  0.55375079  0.01745389  0.32825297     0.18000
C1308       C  0.55829421  0.00782172  0.38304786     0.26000
C1309       C  0.54598996  0.00915093  0.40552322    -0.11700
C1310       C  0.53057591  0.98943268  0.41362678    -0.25700
C1311       C  0.52708574  0.96851823  0.39795134     0.36900
C1312       C  0.53979624  0.96708212  0.37526905    -0.27300
F1313       F  0.57373524  0.02684217  0.37657847    -0.19500
H1314       H  0.54901416  0.02575043  0.41678913     0.16200
F1315       F  0.51184817  0.94944945  0.40461091    -0.23200
H1316       H  0.53748840  0.95068081  0.36356214     0.18000
C1317       C  0.54080222  0.00919602  0.14490530    -0.27200
C1318       C  0.56643770  0.01356672  0.14647841     0.06400
C1319       C  0.57888515  0.02327811  0.12582242     0.26000
C1320       C  0.56603888  0.02762432  0.10365952    -0.11700
C1321       C  0.54059813  0.02204788  0.10155349    -0.25700
C1322       C  0.52793806  0.01328611  0.12264943     0.36800
C1323       C  0.58016472  0.00747088  0.16951686     0.06400
F1324       F  0.60354703  0.02828501  0.12700985    -0.19400
H1325       H  0.57633924  0.03428145  0.08777840     0.16200
F1326       F  0.50331882  0.00802241  0.12165213    -0.23200
H1327       H  0.53088860  0.00179845  0.16072096     0.18000
C1328       C  0.57276530  0.01759424  0.19234325     0.26000
C1329       C  0.58551705  0.01145482  0.21405414    -0.11700
C1330       C  0.60576059  0.99492581  0.21352570    -0.25700
C1331       C  0.61341147  0.98503223  0.19065283     0.36900
C1332       C  0.60062437  0.99124883  0.16880924    -0.27300
F1333       F  0.55351964  0.03383448  0.19357509    -0.19500
H1334       H  0.57967237  0.01991505  0.23136140     0.16200
F1335       F  0.63268308  0.96886379  0.18947792    -0.23200
H1336       H  0.60644231  0.98310807  0.15134508     0.18000
C1337       C  0.72697138  0.10859274  0.23555485    -0.27200
C1338       C  0.70200832  0.10496387  0.22878851     0.06400
C1339       C  0.68958171  0.12436324  0.21626796     0.26000
C1340       C  0.70145249  0.14726158  0.21191190    -0.11700
C1341       C  0.72601376  0.15148724  0.21989350    -0.25700
C1342       C  0.73892827  0.13151399  0.23114704     0.36800
C1343       C  0.68856578  0.08171836  0.23619995     0.06400
F1344       F  0.66574002  0.12136282  0.20858135    -0.19400
H1345       H  0.69097640  0.16205013  0.20305460     0.16200
F1346       F  0.76271399  0.13438703  0.23904825    -0.23200
H1347       H  0.73695799  0.09403150  0.24530913     0.18000
C1348       C  0.69861532  0.05776454  0.23209343     0.26000
C1349       C  0.68565868  0.03622981  0.23947480    -0.11700
C1350       C  0.66256559  0.03811229  0.25123547    -0.25700
C1351       C  0.65250392  0.06206539  0.25525637     0.36900
C1352       C  0.66545535  0.08352946  0.24794884    -0.27300
F1353       F  0.72068598  0.05512644  0.22046190    -0.19500
H1354       H  0.69378954  0.01802739  0.23611988     0.16200
F1355       F  0.62974672  0.06480288  0.26546318    -0.23200
H1356       H  0.65738580  0.10170436  0.25159454     0.18000
C1357       C  0.60179212  0.25472143  0.33032004    -0.27200
C1358       C  0.60023436  0.25730185  0.30439335     0.06400
C1359       C  0.57669350  0.25784012  0.29314022     0.26000
C1360       C  0.55528313  0.25635943  0.30755644    -0.11700
C1361       C  0.55662433  0.25426309  0.33372309    -0.25700
C1362       C  0.58039189  0.25325704  0.34479562     0.36800
C1363       C  0.62318885  0.25918929  0.28928580     0.06400
F1364       F  0.57428141  0.26062207  0.26816948    -0.19400
H1365       H  0.53788925  0.25734891  0.29760837     0.16200
F1366       F  0.58295867  0.25120892  0.36982023    -0.23200
H1367       H  0.61972367  0.25372981  0.33946383     0.18000
C1368       C  0.64265936  0.27536080  0.29640732     0.26000
C1369       C  0.66487983  0.27560968  0.28316364    -0.11700
C1370       C  0.66818994  0.25993031  0.26238232    -0.25700
C1371       C  0.64821868  0.24461880  0.25455968     0.36900
C1372       C  0.62608837  0.24421643  0.26797998    -0.27300
F1373       F  0.64026718  0.29088327  0.31627293    -0.19500
H1374       H  0.67976436  0.28772143  0.28959514     0.16200
F1375       F  0.65040808  0.22898677  0.23475549    -0.23200
H1376       H  0.61149294  0.23144066  0.26218828     0.18000
C1377       C  0.88407405  0.21025389  0.18669093    -0.27200
C1378       C  0.89381988  0.23252632  0.17666090     0.06400
C1379       C  0.87993464  0.25458586  0.17835101     0.26000
C1380       C  0.85677543  0.25434617  0.18953561    -0.11700
C1381       C  0.84661091  0.23211704  0.19930052    -0.25700
C1382       C  0.86060332  0.20997135  0.19788440     0.36800
C1383       C  0.91888693  0.23342366  0.16553723     0.06400
F1384       F  0.88903408  0.27663678  0.16971517    -0.19400
H1385       H  0.84672828  0.27184266  0.19044987     0.16200
F1386       F  0.85146383  0.18804654  0.20670150    -0.23200
H1387       H  0.89454984  0.19303327  0.18559989     0.18000
C1388       C  0.93962560  0.22562606  0.17922965     0.26000
C1389       C  0.96344979  0.22992807  0.17020767    -0.11700
C1390       C  0.96726562  0.24245904  0.14748841    -0.25700
C1391       C  0.94638859  0.24882005  0.13308033     0.36900
C1392       C  0.92248055  0.24441771  0.14211423    -0.27300
F1393       F  0.93694196  0.21512321  0.20199346    -0.19500
H1394       H  0.97897911  0.22367166  0.18135994     0.16200
F1395       F  0.94883757  0.26024589  0.11082217    -0.23200
H1396       H  0.90667644  0.25027935  0.13109893     0.18000
C1397       C  0.94855115  0.46480142  0.36493479    -0.27200
C1398       C  0.93997726  0.48749604  0.35485064     0.06400
C1399       C  0.94064211  0.50918602  0.36964367     0.26000
C1400       C  0.94834235  0.50790641  0.39434036    -0.11700
C1401       C  0.95570013  0.48502835  0.40498230    -0.25700
C1402       C  0.95647451  0.46353486  0.38980367     0.36800
C1403       C  0.92941504  0.48852768  0.32934877     0.06400
F1404       F  0.93370121  0.53168626  0.36024654    -0.19400
H1405       H  0.94812680  0.52496862  0.40529737     0.16200
F1406       F  0.96382433  0.44117984  0.39917037    -0.23200
H1407       H  0.94828802  0.44786352  0.35379776     0.18000
C1408       C  0.94241168  0.47897784  0.30894425     0.26000
C1409       C  0.93239610  0.48081570  0.28499149    -0.11700
C1410       C  0.90936747  0.49251644  0.28076649    -0.25700
C1411       C  0.89629311  0.50183895  0.30132614     0.36900
C1412       C  0.90620592  0.49970753  0.32530199    -0.27300
F1413       F  0.96512810  0.46857503  0.31204538    -0.19500
H1414       H  0.94278720  0.47297894  0.26971399     0.16200
F1415       F  0.87441227  0.51387786  0.29838364    -0.23200
H1416       H  0.89576508  0.50703163  0.34081805     0.18000
C1417       C  0.94809636  0.48025306  0.15838665    -0.27200
C1418       C  0.95021410  0.50298049  0.14549449     0.06400
C1419       C  0.93917679  0.52448545  0.15556052     0.26000
C1420       C  0.92436687  0.52274845  0.17662684    -0.11700
C1421       C  0.91994895  0.49947372  0.18812055    -0.25700
C1422       C  0.93369560  0.47862011  0.17984655     0.36800
C1423       C  0.96202016  0.50381200  0.12066054     0.06400
F1424       F  0.94254273  0.54723718  0.14487540    -0.19400
H1425       H  0.91653717  0.53986884  0.18379506     0.16200
F1426       F  0.93286705  0.45646528  0.19211956    -0.23200
H1427       H  0.95685077  0.46346871  0.15137467     0.18000
C1428       C  0.98473657  0.49195082  0.11596569     0.26000
C1429       C  0.99422399  0.49123624  0.09181875    -0.11700
C1430       C  0.98128483  0.50229966  0.07187278    -0.25700
C1431       C  0.95898023  0.51492158  0.07686740     0.36900
C1432       C  0.94950217  0.51548665  0.10091490    -0.27300
F1433       F  0.99772421  0.48098172  0.13464952    -0.19500
H1434       H  0.01147315  0.48147196  0.08867909     0.16200
F1435       F  0.94578508  0.52612152  0.05847767    -0.23200
H1436       H  0.93178761  0.52441534  0.10393084     0.18000
C1437       C  0.83620771  0.41608108  0.25937540    -0.27200
C1438       C  0.82548744  0.40405266  0.23861446     0.06400
C1439       C  0.82943985  0.41436388  0.21487819     0.26000
C1440       C  0.84366646  0.43610356  0.21217156    -0.11700
C1441       C  0.85472981  0.44785019  0.23288541    -0.25700
C1442       C  0.85092322  0.43752560  0.25658639     0.36800
C1443       C  0.81078333  0.38056246  0.24171199     0.06400
F1444       F  0.82032151  0.40301761  0.19410989    -0.19400
H1445       H  0.84615102  0.44366612  0.19370841     0.16200
F1446       F  0.86224367  0.44739702  0.27699569    -0.23200
H1447       H  0.83333841  0.40877454  0.27787808     0.18000
C1448       C  0.81914542  0.36117593  0.25740242     0.26000
C1449       C  0.80591072  0.33863055  0.25896468    -0.11700
C1450       C  0.78461801  0.33470382  0.24442013    -0.25700
C1451       C  0.77599769  0.35403767  0.22905789     0.36900
C1452       C  0.78865271  0.37692124  0.22816905    -0.27300
F1453       F  0.84100888  0.36323632  0.26987173    -0.19500
H1454       H  0.81329374  0.32355113  0.27018217     0.16200
F1455       F  0.75582232  0.35042400  0.21424030    -0.23200
H1456       H  0.78145519  0.39158854  0.21633574     0.18000
C1457       C  0.22498356  0.79826976  0.60669389    -0.27200
C1458       C  0.22527797  0.82452374  0.60488228     0.06400
C1459       C  0.22155055  0.83894321  0.62636919     0.26000
C1460       C  0.21871998  0.82733089  0.64939803    -0.11700
C1461       C  0.21980338  0.80107949  0.65159225    -0.25700
C1462       C  0.22244418  0.78657621  0.62983214     0.36800
C1463       C  0.22976492  0.83679840  0.58065006     0.06400
F1464       F  0.22085329  0.86432314  0.62510789    -0.19400
H1465       H  0.21669440  0.83906925  0.66570667     0.16200
F1466       F  0.22308509  0.76118518  0.63090850    -0.23200
H1467       H  0.22753090  0.78683625  0.59024630     0.18000
C1468       C  0.24942914  0.85396131  0.57768605     0.26000
C1469       C  0.25350174  0.86537486  0.55464839    -0.11700
C1470       C  0.23835085  0.85947455  0.53419477    -0.25700
C1471       C  0.21845854  0.84262298  0.53728821     0.36900
C1472       C  0.21432859  0.83133065  0.56028113    -0.27300
F1473       F  0.26517467  0.85901946  0.59685078    -0.19500
H1474       H  0.26887820  0.87826290  0.55261418     0.16200
F1475       F  0.20278412  0.83735537  0.51810833    -0.23200
H1476       H  0.19893654  0.81841343  0.56226512     0.18000
C1477       C  0.16039894  0.93818749  0.48273285    -0.27200
C1478       C  0.15071752  0.93457719  0.50666179     0.06400
C1479       C  0.16474092  0.92096296  0.52408250     0.26000
C1480       C  0.18771125  0.91086062  0.51749289    -0.11700
C1481       C  0.19699341  0.91375554  0.49332580    -0.25700
C1482       C  0.18322806  0.92781190  0.47604882     0.36800
C1483       C  0.12552722  0.94397198  0.51279351     0.06400
F1484       F  0.15617242  0.91733241  0.54745335    -0.19400
H1485       H  0.19783904  0.89996650  0.53109019     0.16200
F1486       F  0.19181279  0.93147331  0.45269148    -0.23200
H1487       H  0.14989816  0.94846659  0.46893565     0.18000
C1488       C  0.11887163  0.96894997  0.50809211     0.26000
C1489       C  0.09446517  0.97692044  0.51166543    -0.11700
C1490       C  0.07602172  0.96017418  0.51985003    -0.25700
C1491       C  0.08301349  0.93539795  0.52560151     0.36900
C1492       C  0.10748503  0.92749885  0.52210085    -0.27300
F1493       F  0.13592079  0.98561361  0.49972527    -0.19500
H1494       H  0.08985973  0.99610672  0.50715708     0.16200
F1495       F  0.06607952  0.91838811  0.53352284    -0.23200
H1496       H  0.11211681  0.90812197  0.52571732     0.18000
C1497       C  0.32729433  0.92942891  0.50624109    -0.27200
C1498       C  0.33075983  0.94863990  0.48880410     0.06400
C1499       C  0.31092701  0.95521716  0.47309927     0.26000
C1500       C  0.28862439  0.94161363  0.47380823    -0.11700
C1501       C  0.28559574  0.92161489  0.49048417    -0.25700
C1502       C  0.30487672  0.91610779  0.50720112     0.36800
C1503       C  0.35578185  0.95988365  0.48566663     0.06400
F1504       F  0.31374500  0.97354038  0.45591123    -0.19400
H1505       H  0.27417486  0.94575052  0.46038081     0.16200
F1506       F  0.30283510  0.89645570  0.52296632    -0.23200
H1507       H  0.34239237  0.92406836  0.51845106     0.18000
C1508       C  0.36076617  0.98489252  0.49221887     0.26000
C1509       C  0.38505781  0.99434872  0.49110521    -0.11700
C1510       C  0.40483908  0.97915141  0.48315361    -0.25700
C1511       C  0.39940336  0.95442495  0.47539868     0.36900
C1512       C  0.37520182  0.94495739  0.47687484    -0.27300
F1513       F  0.34236124  0.99982169  0.50072175    -0.19500
H1514       H  0.38846660  0.01342753  0.49716698     0.16200
F1515       F  0.41754085  0.93895099  0.46728317    -0.23200
H1516       H  0.37163599  0.92569018  0.47150016     0.18000
C1517       C  0.24452596  0.78096854  0.37488736    -0.27200
C1518       C  0.26170350  0.79966588  0.38147715     0.06400
C1519       C  0.28313744  0.80269955  0.36704638     0.26000
C1520       C  0.28638912  0.78841586  0.34543388    -0.11700
C1521       C  0.26867391  0.77041448  0.33819584    -0.25700
C1522       C  0.24800867  0.76629477  0.35361235     0.36800
C1523       C  0.25663881  0.81673340  0.40264200     0.06400
F1524       F  0.30022403  0.82047824  0.37306368    -0.19400
H1525       H  0.30238518  0.79198056  0.33391189     0.16200
F1526       F  0.23019316  0.74937542  0.34722835    -0.23200
H1527       H  0.22804668  0.77816336  0.38593283     0.18000
C1528       C  0.23494934  0.83123538  0.40319722     0.26000
C1529       C  0.23081302  0.84815724  0.42269902    -0.11700
C1530       C  0.24816220  0.85083311  0.44224061    -0.25700
C1531       C  0.26974290  0.83586818  0.44160179     0.36900
C1532       C  0.27388194  0.81917927  0.42203663    -0.27300
F1533       F  0.21807043  0.82959360  0.38443410    -0.19500
H1534       H  0.21407546  0.85907238  0.42203664     0.16200
F1535       F  0.28702261  0.83745634  0.46001579    -0.23200
H1536       H  0.29063281  0.80807360  0.42203751     0.18000
C1537       C  0.32295070  0.56427069  0.24024345    -0.27200
C1538       C  0.32248337  0.57364432  0.26463501     0.06400
C1539       C  0.33585737  0.56104066  0.28327200     0.26000
C1540       C  0.35051613  0.54029534  0.27722402    -0.11700
C1541       C  0.35213370  0.53182105  0.25250748    -0.25700
C1542       C  0.33757238  0.54360802  0.23417476     0.36800
C1543       C  0.30973255  0.59772239  0.26967203     0.06400
F1544       F  0.33509561  0.56908642  0.30720756    -0.19400
H1545       H  0.36145320  0.53159262  0.29173354     0.16200
F1546       F  0.33764289  0.53537187  0.21028543    -0.23200
H1547       H  0.31268632  0.57360461  0.22561730     0.18000
C1548       C  0.32318380  0.61846391  0.27887527     0.26000
C1549       C  0.31238679  0.64226152  0.27933425    -0.11700
C1550       C  0.28797960  0.64570628  0.27097249    -0.25700
C1551       C  0.27410594  0.62486875  0.26291386     0.36900
C1552       C  0.28494915  0.60107104  0.26222197    -0.27300
F1553       F  0.34739296  0.61612627  0.28544056    -0.19500
H1554       H  0.32352029  0.65826392  0.28497183     0.16200
F1555       F  0.25069394  0.62785563  0.25407095    -0.23200
H1556       H  0.27434964  0.58540640  0.25486815     0.18000
C1557       C  0.18965373  0.85282195  0.23121506    -0.27200
C1558       C  0.20282850  0.87318659  0.24145676     0.06400
C1559       C  0.22820842  0.87018008  0.24681341     0.26000
C1560       C  0.23968556  0.84693915  0.24328501    -0.11700
C1561       C  0.22619820  0.82612987  0.23426560    -0.25700
C1562       C  0.20111300  0.82960537  0.22755252     0.36800
C1563       C  0.18960783  0.89677682  0.24805835     0.06400
F1564       F  0.24185982  0.88963128  0.25585514    -0.19400
H1565       H  0.25901043  0.84504711  0.24847033     0.16200
F1566       F  0.18712627  0.81026777  0.21878963    -0.23200
H1567       H  0.17006594  0.85452518  0.22708673     0.18000
C1568       C  0.17341202  0.90849141  0.23110784     0.26000
C1569       C  0.16011786  0.92985345  0.23815685    -0.11700
C1570       C  0.16233408  0.93972199  0.26231750    -0.25700
C1571       C  0.17868947  0.92823113  0.27917910     0.36900
C1572       C  0.19221422  0.90706351  0.27205748    -0.27300
F1573       F  0.17044184  0.89931402  0.20771542    -0.19500
H1574       H  0.14750544  0.93829286  0.22489750     0.16200
F1575       F  0.18170435  0.93755387  0.30250528    -0.23200
H1576       H  0.20429945  0.89828634  0.28557975     0.18000
C1577       C  0.09878969  0.72282934  0.34236714    -0.27200
C1578       C  0.10054327  0.73146541  0.31782992     0.06400
C1579       C  0.07976675  0.74286844  0.30689599     0.26000
C1580       C  0.05763826  0.74492443  0.32011443    -0.11700
C1581       C  0.05547933  0.73535236  0.34443974    -0.25700
C1582       C  0.07699568  0.72556350  0.35583657     0.36800
C1583       C  0.12453811  0.72968279  0.30456176     0.06400
F1584       F  0.08104267  0.75286552  0.28378101    -0.19400
H1585       H  0.04240508  0.75457564  0.31127269     0.16200
F1586       F  0.07746461  0.71920242  0.38022029    -0.23200
H1587       H  0.11454398  0.71415978  0.35139844     0.18000
C1588       C  0.14674870  0.73581972  0.31703425     0.26000
C1589       C  0.16939821  0.73291225  0.30525124    -0.11700
C1590       C  0.17054924  0.72478437  0.28048568    -0.25700
C1591       C  0.14846338  0.71955104  0.26748889     0.36900
C1592       C  0.12561766  0.72157131  0.27963068    -0.27300
F1593       F  0.14660362  0.74545801  0.34041506    -0.19500
H1594       H  0.18616841  0.73794645  0.31531728     0.16200
F1595       F  0.14901631  0.71206680  0.24337194    -0.23200
H1596       H  0.10881803  0.71660075  0.26962766     0.18000
C1597       C  0.97542963  0.66181223  0.42171214    -0.27200
C1598       C  0.99316014  0.65655562  0.44033717     0.06400
C1599       C  0.01295769  0.67345012  0.44397473     0.26000
C1600       C  0.01577703  0.69405509  0.42828641    -0.11700
C1601       C  0.99872172  0.69853701  0.40901275    -0.25700
C1602       C  0.97804238  0.68277525  0.40631664     0.36800
C1603       C  0.99188088  0.63266063  0.45454950     0.06400
F1604       F  0.02987691  0.66978714  0.46237478    -0.19400
H1605       H  0.03179903  0.70615610  0.43064769     0.16200
F1606       F  0.96144232  0.68656087  0.38765636    -0.23200
H1607       H  0.96017214  0.64901463  0.41822438     0.18000
C1608       C  0.96926533  0.62378224  0.46397498     0.26000
C1609       C  0.96784844  0.60011878  0.47490520    -0.11700
C1610       C  0.98892197  0.58482244  0.47697588    -0.25700
C1611       C  0.01181721  0.59414479  0.46873516     0.36900
C1612       C  0.01318054  0.61773489  0.45746015    -0.27300
F1613       F  0.94841575  0.63782980  0.46238429    -0.19500
H1614       H  0.94999924  0.59346725  0.48126460     0.16200
F1615       F  0.03252130  0.57984716  0.46998661    -0.23200
H1616       H  0.03077139  0.62384523  0.45000655     0.18000
C1617       C  0.97953106  0.80439502  0.43743939    -0.27200
C1618       C  0.98683253  0.82835541  0.42957925     0.06400
C1619       C  0.00143311  0.83050510  0.40812632     0.26000
C1620       C  0.00778623  0.80919860  0.39443396    -0.11700
C1621       C  0.00012020  0.78519777  0.40197869    -0.25700
C1622       C  0.98611728  0.78300405  0.42388312     0.36800
C1623       C  0.97990933  0.85094557  0.44417473     0.06400
F1624       F  0.01010807  0.85316822  0.40070626    -0.19400
H1625       H  0.01856316  0.81158873  0.37771324     0.16200
F1626       F  0.97944094  0.76021962  0.43276079    -0.23200
H1627       H  0.96864519  0.80224901  0.45413524     0.18000
C1628       C  0.96926292  0.87189019  0.43252529     0.26000
C1629       C  0.96508519  0.89391678  0.44599088    -0.11700
C1630       C  0.97150151  0.89562035  0.47133870    -0.25700
C1631       C  0.98069034  0.87408381  0.48332525     0.36900
C1632       C  0.98476219  0.85200933  0.46983266    -0.27300
F1633       F  0.96328004  0.87121801  0.40798577    -0.19500
H1634       H  0.95791966  0.91005359  0.43618938     0.16200
F1635       F  0.98657673  0.87453593  0.50788604    -0.23200
H1636       H  0.99270847  0.83601821  0.47926190     0.18000
C1637       C  0.76540149  0.18779577  0.41287495    -0.27200
C1638       C  0.75392273  0.17892233  0.39112489     0.06400
C1639       C  0.73690626  0.15897902  0.39289547     0.26000
C1640       C  0.73166812  0.14810468  0.41600493    -0.11700
C1641       C  0.74337679  0.15673733  0.43798346    -0.25700
C1642       C  0.76060239  0.17669554  0.43586416     0.36800
C1643       C  0.76016079  0.19030904  0.36670540     0.06400
F1644       F  0.72550628  0.14979641  0.37220119    -0.19400
H1645       H  0.71935187  0.13211828  0.41621692     0.16200
F1646       F  0.77397712  0.18468838  0.45583852    -0.23200
H1647       H  0.77893374  0.20280301  0.41191796     0.18000
C1648       C  0.75783664  0.21624259  0.36295366     0.26000
C1649       C  0.76244824  0.22667502  0.33958457    -0.11700
C1650       C  0.76971992  0.21157882  0.31941650    -0.25700
C1651       C  0.77333939  0.18575221  0.32359894     0.36900
C1652       C  0.76843966  0.17530252  0.34695656    -0.27300
F1653       F  0.74989604  0.23135364  0.38157962    -0.19500
H1654       H  0.75946116  0.24655823  0.33708009     0.16200
F1655       F  0.78040138  0.17029622  0.30488520    -0.23200
H1656       H  0.77082527  0.15534399  0.34956180     0.18000
C1657       C  0.85658472  0.03217046  0.51472794    -0.27200
C1658       C  0.84845200  0.04233771  0.49218219     0.06400
C1659       C  0.86195157  0.03730285  0.47041506     0.26000
C1660       C  0.88392830  0.02339057  0.47152148    -0.11700
C1661       C  0.89297008  0.01464815  0.49440118    -0.25700
C1662       C  0.87862078  0.01857186  0.51593468     0.36800
C1663       C  0.82757226  0.06032412  0.49197088     0.06400
F1664       F  0.85426599  0.04655597  0.44821658    -0.19400
H1665       H  0.89456286  0.02069818  0.45473985     0.16200
F1666       F  0.88632966  0.01004221  0.53843023    -0.23200
H1667       H  0.84653290  0.03588444  0.53169340     0.18000
C1668       C  0.80405671  0.05401778  0.50131972     0.26000
C1669       C  0.78466563  0.07145981  0.50045606    -0.11700
C1670       C  0.78856881  0.09548283  0.49059119    -0.25700
C1671       C  0.81256747  0.10213461  0.48270278     0.36900
C1672       C  0.83167703  0.08464447  0.48316946    -0.27300
F1673       F  0.79962598  0.03076417  0.51042723    -0.19500
H1674       H  0.76640771  0.06585386  0.50660360     0.16200
F1675       F  0.81766213  0.12563221  0.47456444    -0.23200
H1676       H  0.84988072  0.09017165  0.47676722     0.18000
C1677       C  0.67213802  0.08006650  0.52780408    -0.27200
C1678       C  0.66001141  0.06399661  0.51092538     0.06400
C1679       C  0.66942153  0.06171652  0.48668601     0.26000
C1680       C  0.68995707  0.07599543  0.47933318    -0.11700
C1681       C  0.70167311  0.09261228  0.49602506    -0.25700
C1682       C  0.69280820  0.09413590  0.52056229     0.36800
C1683       C  0.63578522  0.05249512  0.51755372     0.06400
F1684       F  0.65783135  0.04688302  0.46964101    -0.19400
H1685       H  0.69642359  0.07444936  0.46038532     0.16200
F1686       F  0.70297453  0.11043685  0.53716714    -0.23200
H1687       H  0.66503664  0.08234524  0.54645029     0.18000
C1688       C  0.63110050  0.02667486  0.51451051     0.26000
C1689       C  0.60695490  0.01713686  0.51720711    -0.11700
C1690       C  0.58722250  0.03323676  0.52277849    -0.25700
C1691       C  0.59221646  0.05871267  0.52720228     0.36900
C1692       C  0.61629474  0.06814745  0.52489369    -0.27300
F1693       F  0.64964518  0.01090694  0.50802242    -0.19500
H1694       H  0.60338986  0.99752586  0.51329327     0.16200
F1695       F  0.57346819  0.07477637  0.53224285    -0.23200
H1696       H  0.61942786  0.08807276  0.52729422     0.18000
C1697       C  0.16637052  0.64786860  0.73758674    -0.27200
C1698       C  0.17633786  0.62966477  0.72180517     0.06400
C1699       C  0.19606167  0.63646465  0.70608542     0.26000
C1700       C  0.20611858  0.66082035  0.70705289    -0.11700
C1701       C  0.19671598  0.67871377  0.72372562    -0.25700
C1702       C  0.17628718  0.67199460  0.73859409     0.36800
C1703       C  0.16640947  0.60362477  0.72301655     0.06400
F1704       F  0.20553640  0.61963939  0.68978496    -0.19400
H1705       H  0.22160176  0.66547908  0.69521897     0.16200
F1706       F  0.16582065  0.68867749  0.75442009    -0.23200
H1707       H  0.15118641  0.64318699  0.74980404     0.18000
C1708       C  0.18221444  0.58322438  0.72713531     0.26000
C1709       C  0.17251345  0.55913860  0.73059843    -0.11700
C1710       C  0.14668831  0.55458961  0.73006942    -0.25700
C1711       C  0.13094737  0.57532121  0.72621512     0.36900
C1712       C  0.14071082  0.59937070  0.72266559    -0.27300
F1713       F  0.20710269  0.58668434  0.72885219    -0.19500
H1714       H  0.18581713  0.54436737  0.73381949     0.16200
F1715       F  0.10595592  0.57228128  0.72559588    -0.23200
H1716       H  0.12806260  0.61485986  0.71976171     0.18000
C1717       C  0.18994129  0.43670189  0.76011048    -0.27200
C1718       C  0.18250111  0.41456286  0.74810177     0.06400
C1719       C  0.16097494  0.41476929  0.73314836     0.26000
C1720       C  0.14788643  0.43699500  0.72941382    -0.11700
C1721       C  0.15576515  0.45939744  0.74071270    -0.25700
C1722       C  0.17670449  0.45889802  0.75662262     0.36800
C1723       C  0.19752383  0.39148066  0.75054663     0.06400
F1724       F  0.15249509  0.39339282  0.72224159    -0.19400
H1725       H  0.13180134  0.43670367  0.71726903     0.16200
F1726       F  0.18416864  0.47964676  0.76930442    -0.23200
H1727       H  0.20626077  0.43688341  0.77195287     0.18000
C1728       C  0.20493943  0.37848877  0.72917605     0.26000
C1729       C  0.21717827  0.35570616  0.73126268    -0.11700
C1730       C  0.22256038  0.34527420  0.75466677    -0.25700
C1731       C  0.21670652  0.35906697  0.77615637     0.36900
C1732       C  0.20423489  0.38203750  0.77404303    -0.27300
F1733       F  0.20020851  0.38775808  0.70616668    -0.19500
H1734       H  0.22202262  0.34591147  0.71432445     0.16200
F1735       F  0.22185899  0.34987051  0.79908051    -0.23200
H1736       H  0.19900882  0.39200289  0.79075465     0.18000
C1737       C  0.01639155  0.48110821  0.62732694    -0.27200
C1738       C  0.03658704  0.49739019  0.63107830     0.06400
C1739       C  0.04013058  0.51733559  0.61444896     0.26000
C1740       C  0.02491935  0.51977906  0.59353534    -0.11700
C1741       C  0.00575665  0.50249310  0.58871633    -0.25700
C1742       C  0.00102839  0.48359727  0.60635232     0.36800
C1743       C  0.05481879  0.49301935  0.65137400     0.06400
F1744       F  0.05878450  0.53413410  0.61807816    -0.19400
H1745       H  0.02885872  0.53465651  0.58048756     0.16200
F1746       F  0.98283480  0.46636709  0.60245180    -0.23200
H1747       H  0.01327903  0.46567736  0.63995542     0.18000
C1748       C  0.04744153  0.49091923  0.67631911     0.26000
C1749       C  0.06530724  0.49036458  0.69536524    -0.11700
C1750       C  0.09060521  0.49202573  0.68972037    -0.25700
C1751       C  0.09796229  0.49218227  0.66475861     0.36900
C1752       C  0.08020740  0.49250379  0.64579434    -0.27300
F1753       F  0.02308392  0.49141584  0.68237494    -0.19500
H1754       H  0.05935993  0.49060143  0.71455154     0.16200
F1755       F  0.12233886  0.49348319  0.65880829    -0.23200
H1756       H  0.08630120  0.49344683  0.62668089     0.18000
C1757       C  0.05899016  0.49920151  0.80745485    -0.27200
C1758       C  0.06462147  0.47590302  0.81821190     0.06400
C1759       C  0.08238568  0.46062039  0.80675856     0.26000
C1760       C  0.09508268  0.46903966  0.78578846    -0.11700
C1761       C  0.09043819  0.49287398  0.77577564    -0.25700
C1762       C  0.07182080  0.50769882  0.78646960     0.36800
C1763       C  0.05389591  0.46891976  0.84265623     0.06400
F1764       F  0.08781246  0.43770956  0.81616225    -0.19400
H1765       H  0.10924690  0.45717357  0.77789644     0.16200
F1766       F  0.06604040  0.53033451  0.77666386    -0.23200
H1767       H  0.04530728  0.51125607  0.81590747     0.18000
C1768       C  0.06968144  0.46420841  0.86301509     0.26000
C1769       C  0.05996851  0.46132578  0.88683191    -0.11700
C1770       C  0.03436786  0.46272391  0.89089029    -0.25700
C1771       C  0.01837251  0.46593303  0.87043836     0.36900
C1772       C  0.02812371  0.46920084  0.84650119    -0.27300
F1773       F  0.09466530  0.46448905  0.86026533    -0.19500
H1774       H  0.07261126  0.45947522  0.90244669     0.16200
F1775       F  0.99358540  0.46803780  0.87390894    -0.23200
H1776       H  0.01563991  0.47287299  0.83110776     0.18000
C1777       C  0.26376074  0.69930038  0.91901733    -0.27200
C1778       C  0.24656963  0.69730391  0.89950511     0.06400
C1779       C  0.22757378  0.67926612  0.90103283     0.26000
C1780       C  0.22571839  0.66368886  0.92178462    -0.11700
C1781       C  0.24284728  0.66559312  0.94160188    -0.25700
C1782       C  0.26196668  0.68373183  0.93981179     0.36800
C1783       C  0.24856559  0.71362544  0.87732647     0.06400
F1784       F  0.21126533  0.67603527  0.88194712    -0.19400
H1785       H  0.21117843  0.64980332  0.92155073     0.16200
F1786       F  0.27928353  0.68613147  0.95809860    -0.23200
H1787       H  0.27860478  0.71298800  0.91815731     0.18000
C1788       C  0.22797149  0.72738814  0.86918151     0.26000
C1789       C  0.22854531  0.73974381  0.84641909    -0.11700
C1790       C  0.24970649  0.73892527  0.83136743    -0.25700
C1791       C  0.27105466  0.72684647  0.84033128     0.36900
C1792       C  0.27042823  0.71424866  0.86321000    -0.27300
F1793       F  0.20698680  0.72825081  0.88291953    -0.19500
H1794       H  0.21198491  0.74925110  0.84005985     0.16200
F1795       F  0.29174166  0.72553394  0.82620696    -0.23200
H1796       H  0.28656188  0.70387047  0.86927270     0.18000
C1797       C  0.12698731  0.54174326  0.02276223    -0.27200
C1798       C  0.14200439  0.54469513  0.00173056     0.06400
C1799       C  0.13515109  0.53283030  0.97941163     0.26000
C1800       C  0.11302148  0.51931998  0.97779343    -0.11700
C1801       C  0.09742987  0.51703310  0.99846531    -0.25700
C1802       C  0.10493521  0.52771529  0.02127142     0.36800
C1803       C  0.16337262  0.56213493  0.00192158     0.06400
F1804       F  0.14911141  0.53567068  0.95871493    -0.19400
H1805       H  0.10762731  0.51127271  0.96003930     0.16200
F1806       F  0.09019476  0.52610835  0.04153760    -0.23200
H1807       H  0.13198746  0.55093117  0.04007212     0.18000
C1808       C  0.15934066  0.58811123  0.00247078     0.26000
C1809       C  0.17889730  0.60472157  0.99792106    -0.11700
C1810       C  0.20281155  0.59569020  0.99325954    -0.25700
C1811       C  0.20714543  0.56979194  0.99409130     0.36900
C1812       C  0.18745022  0.55311793  0.99805024    -0.27300
F1813       F  0.13620963  0.59732063  0.00594104    -0.19500
H1814       H  0.17531274  0.62467086  0.99754015     0.16200
F1815       F  0.23008388  0.56058677  0.98969038    -0.23200
H1816       H  0.19079663  0.53313602  0.99733321     0.18000
C1817       C  0.36081527  0.53354589  0.98750005    -0.27200
C1818       C  0.35752073  0.55795840  0.97852228     0.06400
C1819       C  0.37747654  0.56991403  0.96670358     0.26000
C1820       C  0.40054203  0.55809256  0.96493349    -0.11700
C1821       C  0.40435443  0.53408854  0.97499791    -0.25700
C1822       C  0.38391874  0.52169883  0.98586626     0.36800
C1823       C  0.33367925  0.57134196  0.98230660     0.06400
F1824       F  0.37468279  0.59316942  0.95697607    -0.19400
H1825       H  0.41565260  0.56813540  0.95628379     0.16200
F1826       F  0.38629992  0.49841651  0.99562116    -0.23200
H1827       H  0.34566274  0.52394194  0.99656653     0.18000
C1828       C  0.31112962  0.56155992  0.97311638     0.26000
C1829       C  0.28924647  0.57551510  0.97508308    -0.11700
C1830       C  0.28941990  0.59911231  0.98668380    -0.25700
C1831       C  0.31166935  0.60840888  0.99678477     0.36900
C1832       C  0.33358405  0.59464570  0.99457858    -0.27300
F1833       F  0.31053561  0.53924186  0.96096156    -0.19500
H1834       H  0.27239416  0.56842722  0.96652859     0.16200
F1835       F  0.31238912  0.63136838  0.00769644    -0.23200
H1836       H  0.35067108  0.60242676  0.00201339     0.18000
C1837       C  0.24879411  0.68828853  0.06654005    -0.27200
C1838       C  0.23689431  0.67368652  0.08449676     0.06400
C1839       C  0.22742690  0.65005280  0.07767833     0.26000
C1840       C  0.23000041  0.64121784  0.05327569    -0.11700
C1841       C  0.24233537  0.65561846  0.03528885    -0.25700
C1842       C  0.25175815  0.67935024  0.04227861     0.36800
C1843       C  0.23639277  0.68250724  0.11064648     0.06400
F1844       F  0.21557503  0.63560057  0.09460089    -0.19400
H1845       H  0.22203535  0.62319090  0.04843646     0.16200
F1846       F  0.26473028  0.69360221  0.02604613    -0.23200
H1847       H  0.25659786  0.70635236  0.07158509     0.18000
C1848       C  0.24939436  0.66932383  0.12905409     0.26000
C1849       C  0.25152626  0.67908470  0.15309945    -0.11700
C1850       C  0.24047403  0.70204000  0.15946544    -0.25700
C1851       C  0.22653530  0.71475772  0.14126753     0.36900
C1852       C  0.22481925  0.70517152  0.11697642    -0.27300
F1853       F  0.26110892  0.64759352  0.12344481    -0.19500
H1854       H  0.26221169  0.66877104  0.16672991     0.16200
F1855       F  0.21557872  0.73695780  0.14657793    -0.23200
H1856       H  0.21479910  0.71563126  0.10295684     0.18000
C1857       C  0.76339987  0.31900928  0.06412782    -0.27200
C1858       C  0.74366640  0.30177834  0.06617170     0.06400
C1859       C  0.72554313  0.30100569  0.04729194     0.26000
C1860       C  0.72643836  0.31807002  0.02761806    -0.11700
C1861       C  0.74558765  0.33591962  0.02620211    -0.25700
C1862       C  0.76445215  0.33585799  0.04424356     0.36800
C1863       C  0.74127866  0.28617444  0.08891875     0.06400
F1864       F  0.70685153  0.28393743  0.04802711    -0.19400
H1865       H  0.71185945  0.31772606  0.01367716     0.16200
F1866       F  0.78295214  0.35314258  0.04353394    -0.23200
H1867       H  0.77746442  0.32016784  0.07854605     0.18000
C1868       C  0.76168879  0.27284104  0.09822438     0.26000
C1869       C  0.76064083  0.26177777  0.12167101    -0.11700
C1870       C  0.73924824  0.26359452  0.13633882    -0.25700
C1871       C  0.71818496  0.27533183  0.12639515     0.36900
C1872       C  0.71924755  0.28655090  0.10284230    -0.27300
F1873       F  0.78298589  0.27129386  0.08504071    -0.19500
H1874       H  0.77709444  0.25275586  0.12896014     0.16200
F1875       F  0.69745360  0.27796699  0.14026451    -0.23200
H1876       H  0.70333404  0.29689008  0.09615980     0.18000
C1877       C  0.82651035  0.43184095  0.99570741    -0.27200
C1878       C  0.84374550  0.42016475  0.98002491     0.06400
C1879       C  0.83683305  0.39758763  0.96814708     0.26000
C1880       C  0.81319825  0.38728517  0.97165722    -0.11700
C1881       C  0.79582562  0.39921256  0.98696000    -0.25700
C1882       C  0.80283089  0.42158063  0.99914142     0.36800
C1883       C  0.86901124  0.43120138  0.97673522     0.06400
F1884       F  0.85260992  0.38586265  0.95243933    -0.19400
H1885       H  0.80822804  0.37034371  0.96164384     0.16200
F1886       F  0.78697110  0.43336248  0.01471568    -0.23200
H1887       H  0.83149256  0.44884522  0.00560995     0.18000
C1888       C  0.87247645  0.45702158  0.97233344     0.26000
C1889       C  0.89644348  0.46720312  0.97059029    -0.11700
C1890       C  0.91742068  0.45181845  0.97262596    -0.25700
C1891       C  0.91390692  0.42595075  0.97651794     0.36900
C1892       C  0.89003830  0.41589617  0.97870548    -0.27300
F1893       F  0.85270642  0.47238504  0.96939743    -0.19500
H1894       H  0.89861170  0.48713842  0.96756141     0.16200
F1895       F  0.93358859  0.41046828  0.97949763    -0.23200
H1896       H  0.88803990  0.39610895  0.98262448     0.18000
C1897       C  0.67544776  0.43545044  0.00802346    -0.27200
C1898       C  0.65736771  0.43444428  0.98922252     0.06400
C1899       C  0.66273435  0.42146044  0.96713561     0.26000
C1900       C  0.68479644  0.40803114  0.96475827    -0.11700
C1901       C  0.70227353  0.40724708  0.98434149    -0.25700
C1902       C  0.69764725  0.42211637  0.00564723     0.36800
C1903       C  0.63230665  0.44523139  0.99320366     0.06400
F1904       F  0.64632227  0.42136220  0.94789328    -0.19400
H1905       H  0.68742880  0.39795654  0.94763770     0.16200
F1906       F  0.71418411  0.42284388  0.02476783    -0.23200
H1907       H  0.67190713  0.44563511  0.02506386     0.18000
C1908       C  0.61115943  0.43021283  0.98930137     0.26000
C1909       C  0.58751972  0.44048273  0.99103661    -0.11700
C1910       C  0.58426859  0.46580031  0.99727120    -0.25700
C1911       C  0.60527755  0.48060812  0.00266402     0.36900
C1912       C  0.62915841  0.47034702  0.00059249    -0.27300
F1913       F  0.61335967  0.40550157  0.98372223    -0.19500
H1914       H  0.57160019  0.42863003  0.98713558     0.16200
F1915       F  0.60278949  0.50523579  0.00843072    -0.23200
H1916       H  0.64518520  0.48219934  0.00392785     0.18000
C1917       C  0.28183390  0.89734312  0.73779128    -0.27200
C1918       C  0.30468916  0.89873186  0.75037146     0.06400
C1919       C  0.31187367  0.87857523  0.76553452     0.26000
C1920       C  0.29719742  0.85699074  0.76693885    -0.11700
C1921       C  0.27484261  0.85496837  0.75348271    -0.25700
C1922       C  0.26702679  0.87571177  0.73923064     0.36800
C1923       C  0.32112710  0.92102064  0.74775402     0.06400
F1924       F  0.33315711  0.87975152  0.77909279    -0.19400
H1925       H  0.30366189  0.84158915  0.77827323     0.16200
F1926       F  0.24567431  0.87478911  0.72577465    -0.23200
H1927       H  0.27580937  0.91273367  0.72619417     0.18000
C1928       C  0.34640523  0.91808316  0.74211331     0.26000
C1929       C  0.36253587  0.93862905  0.74306816    -0.11700
C1930       C  0.35367023  0.96252467  0.74895236    -0.25700
C1931       C  0.32819628  0.96592448  0.75279760     0.36900
C1932       C  0.31203888  0.94526600  0.75223303    -0.27300
F1933       F  0.35558668  0.89523308  0.73610710    -0.19500
H1934       H  0.38212310  0.93580805  0.73985735     0.16200
F1935       F  0.31925475  0.98890522  0.75868760    -0.23200
H1936       H  0.29264517  0.94802583  0.75643837     0.18000
C1937       C  0.33662799  0.08174349  0.72315576    -0.27200
C1938       C  0.32352869  0.09278775  0.74274711     0.06400
C1939       C  0.32421550  0.08156345  0.76632619     0.26000
C1940       C  0.33853691  0.06019423  0.77035470    -0.11700
C1941       C  0.35236207  0.04959503  0.75097754    -0.25700
C1942       C  0.35091538  0.06032199  0.72714445     0.36800
C1943       C  0.31077337  0.11699416  0.73905050     0.06400
F1944       F  0.31211876  0.09202997  0.78577935    -0.19400
H1945       H  0.33923720  0.05220066  0.78881583     0.16200
F1946       F  0.36447245  0.05118104  0.70804073    -0.23200
H1947       H  0.33629941  0.09015370  0.70486676     0.18000
C1948       C  0.32399374  0.13795811  0.73052807     0.26000
C1949       C  0.31258593  0.16135494  0.72924685    -0.11700
C1950       C  0.28778229  0.16439389  0.73650214    -0.25700
C1951       C  0.27425777  0.14307481  0.74405200     0.36900
C1952       C  0.28575346  0.11966591  0.74536773    -0.27300
F1953       F  0.34837218  0.13611385  0.72478119    -0.19500
H1954       H  0.32356636  0.17730457  0.72347162     0.16200
F1955       F  0.25014296  0.14483689  0.75080811    -0.23200
H1956       H  0.27522796  0.10363656  0.75175281     0.18000
C1957       C  0.41693093  0.00489649  0.84775341    -0.27200
C1958       C  0.44287117  0.00507916  0.84861057     0.06400
C1959       C  0.45613305  0.00512355  0.82630338     0.26000
C1960       C  0.44352568  0.00540148  0.80346101    -0.11700
C1961       C  0.41734307  0.00558511  0.80242469    -0.25700
C1962       C  0.40429875  0.00502449  0.82507064     0.36800
C1963       C  0.45563445  0.00602419  0.87300170     0.06400
F1964       F  0.48128429  0.00560792  0.82660867    -0.19400
H1965       H  0.45466083  0.00541324  0.78694188     0.16200
F1966       F  0.37914045  0.00478371  0.82528833    -0.23200
H1967       H  0.40638545  0.00466191  0.86481051     0.18000
C1968       C  0.45011942  0.02531212  0.88977451     0.26000
C1969       C  0.46027411  0.02523034  0.91361016    -0.11700
C1970       C  0.47617127  0.00588531  0.92144833    -0.25700
C1971       C  0.48241978  0.98696046  0.90429775     0.36900
C1972       C  0.47220280  0.98711786  0.88022968    -0.27300
F1973       F  0.43475979  0.04425850  0.88310565    -0.19500
H1974       H  0.45531442  0.04035084  0.92606270     0.16200
F1975       F  0.49788089  0.96808636  0.91083527    -0.23200
H1976       H  0.47663199  0.97208710  0.86746255     0.18000
C1977       C  0.42894262  0.02907990  0.61485689    -0.27200
C1978       C  0.44408379  0.02525772  0.63575631     0.06400
C1979       C  0.46987713  0.02352487  0.63271021     0.26000
C1980       C  0.48015215  0.02463604  0.60897823    -0.11700
C1981       C  0.46493780  0.02760870  0.58790590    -0.25700
C1982       C  0.43918934  0.03040166  0.59114151     0.36800
C1983       C  0.43273122  0.02169336  0.66042618     0.06400
F1984       F  0.48500128  0.01929089  0.65250026    -0.19400
H1985       H  0.49996652  0.02227616  0.60701674     0.16200
F1986       F  0.42366194  0.03278500  0.57134009    -0.23200
H1987       H  0.40903966  0.03048762  0.61688425     0.18000
C1988       C  0.44037809  0.03622320  0.68089609     0.26000
C1989       C  0.43027736  0.03187443  0.70429942    -0.11700
C1990       C  0.41229343  0.01309285  0.70767223    -0.25700
C1991       C  0.40419855  0.99894038  0.68710292     0.36900
C1992       C  0.41438584  0.00323909  0.66366263    -0.27300
F1993       F  0.45731449  0.05486949  0.67816373    -0.19500
H1994       H  0.43635380  0.04338710  0.71981670     0.16200
F1995       F  0.38720676  0.98035039  0.68982233    -0.23200
H1996       H  0.40835271  0.99177763  0.64808779     0.18000
C1997       C  0.37889710  0.77742404  0.19616877    -0.27200
C1998       C  0.39441473  0.75632116  0.19583968     0.06400
C1999       C  0.38789262  0.73523012  0.20992408     0.26000
C2000       C  0.36526607  0.73440163  0.22221607    -0.11700
C2001       C  0.34888156  0.75471694  0.22113192    -0.25700
C2002       C  0.35622269  0.77669137  0.20881217     0.36800
C2003       C  0.41608334  0.75518746  0.17910638     0.06400
F2004       F  0.40302472  0.71500100  0.21096782    -0.19400
H2005       H  0.36007350  0.71741066  0.23187185     0.16200
F2006       F  0.34068365  0.79655234  0.20726204    -0.23200
H2007       H  0.38367705  0.79388852  0.18548675     0.18000
C2008       C  0.41784623  0.73576801  0.16154849     0.26000
C2009       C  0.43847232  0.73393898  0.14618452    -0.11700
C2010       C  0.45806003  0.75145231  0.14785671    -0.25700
C2011       C  0.45563451  0.77155447  0.16488061     0.36900
C2012       C  0.43491856  0.77329346  0.18034638    -0.27300
F2013       F  0.39918082  0.71882091  0.15876035    -0.19500
H2014       H  0.43825680  0.71902811  0.13266774     0.16200
F2015       F  0.47333015  0.78964911  0.16651145    -0.23200
H2016       H  0.43369480  0.78865051  0.19348347     0.18000
C2017       C  0.51923833  0.68380714  0.04539091    -0.27200
C2018       C  0.51744825  0.66012569  0.05672286     0.06400
C2019       C  0.51345718  0.65895924  0.08250126     0.26000
C2020       C  0.51037279  0.68087263  0.09632556    -0.11700
C2021       C  0.51109406  0.70448159  0.08489784    -0.25700
C2022       C  0.51620103  0.70586120  0.05937077     0.36800
C2023       C  0.51832439  0.63662171  0.04175428     0.06400
F2024       F  0.51111610  0.63657345  0.09417294    -0.19400
H2025       H  0.50666645  0.67935936  0.11602411     0.16200
F2026       F  0.51684656  0.72834969  0.04771463    -0.23200
H2027       H  0.52252229  0.68518963  0.02561430     0.18000
C2028       C  0.50272369  0.63316271  0.02094379     0.26000
C2029       C  0.50142377  0.60985305  0.00892574    -0.11700
C2030       C  0.51545555  0.58942387  0.01749366    -0.25700
C2031       C  0.53182333  0.59325629  0.03772549     0.36900
C2032       C  0.53326334  0.61660908  0.04954391    -0.27300
F2033       F  0.48755557  0.65181406  0.01316252    -0.19500
H2034       H  0.48854339  0.60753081  0.99355940     0.16200
F2035       F  0.54603584  0.57432469  0.04660452    -0.23200
H2036       H  0.54566581  0.61889218  0.06530998     0.18000
C2037       C  0.52463369  0.83338057  0.06992090    -0.27200
C2038       C  0.50362852  0.84143245  0.05659931     0.06400
C2039       C  0.48355874  0.82490430  0.05346664     0.26000
C2040       C  0.48379474  0.80146904  0.06501536    -0.11700
C2041       C  0.50408840  0.79400278  0.07974904    -0.25700
C2042       C  0.52500849  0.80971669  0.08123509     0.36800
C2043       C  0.50151762  0.86786273  0.04843992     0.06400
F2044       F  0.46293400  0.83221717  0.04091528    -0.19400
H2045       H  0.46744703  0.78967598  0.06367864     0.16200
F2046       F  0.54483663  0.80320534  0.09541127    -0.23200
H2047       H  0.54029330  0.84590954  0.07247472     0.18000
C2048       C  0.49966393  0.88709196  0.06619222     0.26000
C2049       C  0.49710842  0.91203170  0.05872829    -0.11700
C2050       C  0.49672124  0.91844454  0.03338380    -0.25700
C2051       C  0.49826262  0.89905246  0.01557199     0.36900
C2052       C  0.50037330  0.87398264  0.02311086    -0.27300
F2053       F  0.50012561  0.88168570  0.09082292    -0.19500
H2054       H  0.49614567  0.92644620  0.07290029     0.16200
F2055       F  0.49770194  0.90425870  0.99090888    -0.23200
H2056       H  0.50144977  0.85933723  0.00918282     0.18000
C2057       C  0.68497354  0.94794692  0.98389052    -0.27200
C2058       C  0.66750701  0.94934785  0.00297476     0.06400
C2059       C  0.67194156  0.93613360  0.02507225     0.26000
C2060       C  0.69308920  0.92121641  0.02773482    -0.11700
C2061       C  0.71052226  0.91910778  0.00840101    -0.25700
C2062       C  0.70636734  0.93337771  0.98664413     0.36800
C2063       C  0.64415608  0.96363957  0.99950757     0.06400
F2064       F  0.65527229  0.93690026  0.04383203    -0.19400
H2065       H  0.69523299  0.91134476  0.04502612     0.16200
F2066       F  0.72278263  0.93272647  0.96765132    -0.23200
H2067       H  0.68197886  0.95812349  0.96675520     0.18000
C2068       C  0.63804373  0.98343840  0.01556939     0.26000
C2069       C  0.61480754  0.99494877  0.01385615    -0.11700
C2070       C  0.59699798  0.98673746  0.99632988    -0.25700
C2071       C  0.60365248  0.96764000  0.97949251     0.36900
C2072       C  0.62706746  0.95639655  0.98101288    -0.27300
F2073       F  0.65437769  0.99127236  0.03328418    -0.19500
H2074       H  0.61035919  0.00954680  0.02710034     0.16200
F2075       F  0.58735166  0.95932293  0.96197467    -0.23200
H2076       H  0.63149026  0.94124400  0.96838000     0.18000
C2077       C  0.84852063  0.90846994  0.00246603    -0.27200
C2078       C  0.85285273  0.92948537  0.01776293     0.06400
C2079       C  0.83258099  0.94090012  0.02941719     0.26000
C2080       C  0.80859563  0.93144308  0.02589425    -0.11700
C2081       C  0.80411782  0.91048000  0.01052746    -0.25700
C2082       C  0.82442228  0.89906739  0.99877864     0.36800
C2083       C  0.87833854  0.93989420  0.02099150     0.06400
F2084       F  0.83603893  0.96088178  0.04474369    -0.19400
H2085       H  0.79352251  0.94032271  0.03568761     0.16200
F2086       F  0.82098932  0.87936472  0.98311255    -0.23200
H2087       H  0.86380568  0.89961130  0.99296888     0.18000
C2088       C  0.89815474  0.92468091  0.02866401     0.26000
C2089       C  0.92215398  0.93466764  0.03091405    -0.11700
C2090       C  0.92702644  0.95999349  0.02535805    -0.25700
C2091       C  0.90695794  0.97529804  0.01819268     0.36900
C2092       C  0.88298304  0.96530849  0.01612755    -0.27300
F2093       F  0.89429788  0.90016414  0.03409007    -0.19500
H2094       H  0.93706677  0.92231181  0.03639830     0.16200
F2095       F  0.91044143  0.99983100  0.01261222    -0.23200
H2096       H  0.86803568  0.97737619  0.01009942     0.18000
C2097       C  0.76823958  0.84539431  0.09778705    -0.27200
C2098       C  0.77469414  0.82028816  0.09342299     0.06400
C2099       C  0.77613523  0.81174497  0.06867079     0.26000
C2100       C  0.77071978  0.82791822  0.04886117    -0.11700
C2101       C  0.76344678  0.85274826  0.05335598    -0.25700
C2102       C  0.76272204  0.86147596  0.07805655     0.36800
C2103       C  0.77822861  0.80300878  0.11487137     0.06400
F2104       F  0.78278964  0.78777927  0.06364615    -0.19400
H2105       H  0.77158571  0.82084342  0.02999847     0.16200
F2106       F  0.75692515  0.88566551  0.08316239    -0.23200
H2107       H  0.76683137  0.85244881  0.11661810     0.18000
C2108       C  0.79304778  0.80993771  0.13542104     0.26000
C2109       C  0.79318178  0.79534220  0.15701431    -0.11700
C2110       C  0.77858929  0.77347947  0.15867419    -0.25700
C2111       C  0.76497554  0.76575890  0.13748777     0.36900
C2112       C  0.76483309  0.78041385  0.11592342    -0.27300
F2113       F  0.80692455  0.83119965  0.13487323    -0.19500
H2114       H  0.80399691  0.80176360  0.17284438     0.16200
F2115       F  0.75036703  0.74501336  0.13805888    -0.23200
H2116       H  0.75309077  0.77475738  0.10047552     0.18000
C2117       C  0.69312566  0.85951453  0.25471284    -0.27200
C2118       C  0.70957573  0.87967579  0.25182745     0.06400
C2119       C  0.73519979  0.87516224  0.25246749     0.26000
C2120       C  0.74409139  0.85068435  0.25521167    -0.11700
C2121       C  0.72759360  0.83035044  0.25775823    -0.25700
C2122       C  0.70190473  0.83515414  0.25772952     0.36800
C2123       C  0.69950747  0.90534401  0.24960295     0.06400
F2124       F  0.75157137  0.89431231  0.24975933    -0.19400
H2125       H  0.76390756  0.84760609  0.25495361     0.16200
F2126       F  0.68509112  0.81628723  0.25970210    -0.23200
H2127       H  0.67331063  0.86268883  0.25474004     0.18000
C2128       C  0.68124392  0.91091990  0.23166018     0.26000
C2129       C  0.66815219  0.93345687  0.23295082    -0.11700
C2130       C  0.67295157  0.95052787  0.25223186    -0.25700
C2131       C  0.69244697  0.94580801  0.26902117     0.36900
C2132       C  0.70572339  0.92343570  0.26757916    -0.27300
F2133       F  0.67512530  0.89394974  0.21377463    -0.19500
H2134       H  0.65292533  0.93660083  0.22015975     0.16200
F2135       F  0.69736954  0.96202526  0.28792653    -0.23200
H2136       H  0.71962318  0.91945721  0.28162146     0.18000
C2137       C  0.93395223  0.72671558  0.30785584    -0.27200
C2138       C  0.91692702  0.74544766  0.31428189     0.06400
C2139       C  0.92249170  0.76146172  0.33441982     0.26000
C2140       C  0.94469084  0.75866220  0.34777170    -0.11700
C2141       C  0.96169240  0.73999591  0.34118726    -0.25700
C2142       C  0.95606552  0.72393578  0.32113794     0.36800
C2143       C  0.89250865  0.74626686  0.30143136     0.06400
F2144       F  0.90614070  0.77922042  0.34171959    -0.19400
H2145       H  0.94876313  0.77130788  0.36306650     0.16200
F2146       F  0.97164617  0.70511303  0.31476413    -0.23200
H2147       H  0.92994959  0.71397908  0.29261596     0.18000
C2148       C  0.88265582  0.76852980  0.29152017     0.26000
C2149       C  0.85900540  0.76851268  0.28040277    -0.11700
C2150       C  0.84488515  0.74631722  0.27899515    -0.25700
C2151       C  0.85535505  0.72395663  0.28819763     0.36900
C2152       C  0.87873244  0.72407434  0.29927442    -0.27300
F2153       F  0.89596541  0.79015175  0.29231741    -0.19500
H2154       H  0.85159874  0.78591032  0.27328617     0.16200
F2155       F  0.84304184  0.70176160  0.28668950    -0.23200
H2156       H  0.88594506  0.70669177  0.30666016     0.18000
C2157       C  0.78423264  0.60578923  0.25256583    -0.27200
C2158       C  0.79665197  0.59682061  0.23156303     0.06400
C2159       C  0.79591502  0.61116940  0.20957523     0.26000
C2160       C  0.78464954  0.63486342  0.20938933    -0.11700
C2161       C  0.77409693  0.64465164  0.23110791    -0.25700
C2162       C  0.77315597  0.62939222  0.25243959     0.36800
C2163       C  0.81210885  0.57379925  0.23344591     0.06400
F2164       F  0.80770830  0.60319292  0.18883010    -0.19400
H2165       H  0.78571345  0.64622532  0.19279467     0.16200
F2166       F  0.76237308  0.63773373  0.27361990    -0.23200
H2167       H  0.78392237  0.59485903  0.26948320     0.18000
C2168       C  0.82962902  0.57116202  0.25287421     0.26000
C2169       C  0.84612926  0.55096726  0.25305057    -0.11700
C2170       C  0.84551926  0.53314911  0.23391608    -0.25700
C2171       C  0.82723301  0.53495073  0.21526442     0.36900
C2172       C  0.81065074  0.55505905  0.21509587    -0.27300
F2173       F  0.83204469  0.58905970  0.27071766    -0.19500
H2174       H  0.86042463  0.55016003  0.26723869     0.16200
F2175       F  0.82613422  0.51776184  0.19663085    -0.23200
H2176       H  0.79710574  0.55637570  0.20022029     0.18000
C2177       C  0.58172471  0.76332467  0.17245061    -0.27200
C2178       C  0.59860405  0.74548754  0.16348794     0.06400
C2179       C  0.59182133  0.73118468  0.14238927     0.26000
C2180       C  0.56867723  0.73456547  0.13086403    -0.11700
C2181       C  0.55159477  0.75182400  0.14037142    -0.25700
C2182       C  0.55848122  0.76641466  0.16115900     0.36800
C2183       C  0.62259257  0.74129755  0.17693119     0.06400
F2184       F  0.60690542  0.71291098  0.13371527    -0.19400
H2185       H  0.56363160  0.72276691  0.11519468     0.16200
F2186       F  0.54270852  0.78367829  0.17061881    -0.23200
H2187       H  0.58647434  0.77481026  0.18843150     0.18000
C2188       C  0.64516560  0.73912205  0.16412573     0.26000
C2189       C  0.66735192  0.73492077  0.17714077    -0.11700
C2190       C  0.66778447  0.73350490  0.20325903    -0.25700
C2191       C  0.64528954  0.73617000  0.21609845     0.36900
C2192       C  0.62302144  0.73976698  0.20304300    -0.27300
F2193       F  0.64604680  0.74223966  0.13912773    -0.19500
H2194       H  0.68442700  0.73377998  0.16674636     0.16200
F2195       F  0.64473542  0.73533394  0.24129304    -0.23200
H2196       H  0.60598876  0.74135325  0.21344121     0.18000
C2197       C  0.62090903  0.52581453  0.50060907    -0.27200
C2198       C  0.62530796  0.54889085  0.48885641     0.06400
C2199       C  0.60555587  0.56046608  0.47618084     0.26000
C2200       C  0.58176895  0.54995595  0.47663555    -0.11700
C2201       C  0.57698220  0.52768967  0.48971449    -0.25700
C2202       C  0.59706814  0.51529759  0.50113464     0.36800
C2203       C  0.64964787  0.56198140  0.49188523     0.06400
F2204       F  0.60878372  0.58283593  0.46471264    -0.19400
H2205       H  0.56684311  0.55988034  0.46746885     0.16200
F2206       F  0.59359435  0.49368925  0.51388977    -0.23200
H2207       H  0.63586620  0.51625999  0.51011218     0.18000
C2208       C  0.66041200  0.56484752  0.51563643     0.26000
C2209       C  0.68158524  0.57967603  0.51900098    -0.11700
C2210       C  0.69243434  0.59235011  0.49893672    -0.25700
C2211       C  0.68236585  0.58863099  0.47496906     0.36900
C2212       C  0.66127175  0.57349987  0.47154482    -0.27300
F2213       F  0.64959562  0.55464896  0.53594928    -0.19500
H2214       H  0.68906627  0.58188832  0.53760795     0.16200
F2215       F  0.69175174  0.60086276  0.45506098    -0.23200
H2216       H  0.65354160  0.57141002  0.45302585     0.18000
C2217       C  0.84964449  0.53979416  0.53228838    -0.27200
C2218       C  0.83631080  0.54120965  0.50972805     0.06400
C2219       C  0.84463641  0.52743894  0.48921150     0.26000
C2220       C  0.86681859  0.51410092  0.49069668    -0.11700
C2221       C  0.88114105  0.51404564  0.51266545    -0.25700
C2222       C  0.87179324  0.52608631  0.53388005     0.36800
C2223       C  0.81601491  0.55968689  0.50657367     0.06400
F2224       F  0.83256250  0.52878409  0.46704876    -0.19400
H2225       H  0.87368728  0.50508473  0.47405725     0.16200
F2226       F  0.88513729  0.52661903  0.55534832    -0.23200
H2227       H  0.84351464  0.55035077  0.54831703     0.18000
C2228       C  0.79188600  0.55247312  0.49929645     0.26000
C2229       C  0.77321455  0.57056602  0.49642989    -0.11700
C2230       C  0.77842331  0.59607130  0.50055007    -0.25700
C2231       C  0.80297190  0.60324821  0.50636369     0.36900
C2232       C  0.82138880  0.58522538  0.50960427    -0.27300
F2233       F  0.78618663  0.52790603  0.49592592    -0.19500
H2234       H  0.75446278  0.56453793  0.49219372     0.16200
F2235       F  0.80909906  0.62777892  0.50933920    -0.23200
H2236       H  0.84001795  0.59123882  0.51442351     0.18000
C2237       C  0.70494078  0.69489235  0.36800656    -0.27200
C2238       C  0.72597450  0.69226182  0.38343472     0.06400
C2239       C  0.74865603  0.70225581  0.37546779     0.26000
C2240       C  0.75068789  0.71300274  0.35198944    -0.11700
C2241       C  0.73016803  0.71432026  0.33581648    -0.25700
C2242       C  0.70697231  0.70588461  0.34431329     0.36800
C2243       C  0.72502619  0.67821689  0.40728588     0.06400
F2244       F  0.76907173  0.70121740  0.39030787    -0.19400
H2245       H  0.76868642  0.71971587  0.34611147     0.16200
F2246       F  0.68675442  0.70671500  0.32920865    -0.23200
H2247       H  0.68722148  0.68746985  0.37386375     0.18000
C2248       C  0.70938609  0.68563440  0.42669203     0.26000
C2249       C  0.71119657  0.67410529  0.45002539    -0.11700
C2250       C  0.72847831  0.65484851  0.45443519    -0.25700
C2251       C  0.74321635  0.64662697  0.43462541     0.36900
C2252       C  0.74151913  0.65827035  0.41137562    -0.27300
F2253       F  0.69330170  0.70485391  0.42350166    -0.19500
H2254       H  0.69932469  0.68055923  0.46484763     0.16200
F2255       F  0.76033617  0.62840736  0.43806199    -0.23200
H2256       H  0.75365985  0.65215505  0.39662495     0.18000
C2257       C  0.59067962  0.50846104  0.83293815    -0.27200
C2258       C  0.56547621  0.51334649  0.82877259     0.06400
C2259       C  0.55599316  0.51216076  0.80441118     0.26000
C2260       C  0.57145571  0.50565615  0.78462031    -0.11700
C2261       C  0.59636234  0.49949862  0.78894652    -0.25700
C2262       C  0.60601789  0.50148142  0.81324271     0.36800
C2263       C  0.54870409  0.51597511  0.85025076     0.06400
F2264       F  0.53165987  0.51673331  0.79991207    -0.19400
H2265       H  0.56379765  0.50477677  0.76602963     0.16200
F2266       F  0.63034711  0.49695634  0.81786500    -0.23200
H2267       H  0.59825303  0.50916709  0.85162402     0.18000
C2268       C  0.53367407  0.49562296  0.85685264     0.26000
C2269       C  0.52045265  0.49610457  0.87901633    -0.11700
C2270       C  0.52173455  0.51695177  0.89501428    -0.25700
C2271       C  0.53565322  0.53801192  0.88776463     0.36900
C2272       C  0.54929749  0.53737106  0.86558327    -0.27300
F2273       F  0.53319407  0.47452687  0.84268233    -0.19500
H2274       H  0.51007726  0.47956601  0.88432732     0.16200
F2275       F  0.53766282  0.55825317  0.90298511    -0.23200
H2276       H  0.56098023  0.55315430  0.86079470     0.18000
C2277       C  0.58952546  0.49627894  0.65731578    -0.27200
C2278       C  0.56398497  0.49293302  0.66126457     0.06400
C2279       C  0.55530456  0.49199103  0.68588051     0.26000
C2280       C  0.57201028  0.49364814  0.70594253    -0.11700
C2281       C  0.59756106  0.49601623  0.70183124    -0.25700
C2282       C  0.60615951  0.49763774  0.67732238     0.36800
C2283       C  0.54712304  0.48916020  0.63947474     0.06400
F2284       F  0.53096779  0.48779135  0.69055953    -0.19400
H2285       H  0.56512852  0.49151698  0.72463015     0.16200
F2286       F  0.63078304  0.49975770  0.67274513    -0.23200
H2287       H  0.59669360  0.49727961  0.63859371     0.18000
C2288       C  0.52530549  0.50320590  0.63634563     0.26000
C2289       C  0.51125640  0.50104360  0.61436901    -0.11700
C2290       C  0.51874756  0.48502275  0.59498992    -0.25700
C2291       C  0.53988606  0.47002884  0.59880227     0.36900
C2292       C  0.55378280  0.47213213  0.62074287    -0.27300
F2293       F  0.51843204  0.52023053  0.65374020    -0.19500
H2294       H  0.49525924  0.51299594  0.61199254     0.16200
F2295       F  0.54774783  0.45388619  0.58100539    -0.23200
H2296       H  0.57024936  0.46078257  0.62286439     0.18000
C2297       C  0.71510392  0.36773648  0.75901737    -0.27200
C2298       C  0.70540172  0.37843555  0.73731687     0.06400
C2299       C  0.70840936  0.36567142  0.71456115     0.26000
C2300       C  0.71947977  0.34182074  0.71401892    -0.11700
C2301       C  0.72766281  0.33043783  0.73614044    -0.25700
C2302       C  0.72611127  0.34414873  0.75852863     0.36800
C2303       C  0.69053069  0.40177823  0.73939247     0.06400
F2304       F  0.69931502  0.37552410  0.69316694    -0.19400
H2305       H  0.72048378  0.33176100  0.69654741     0.16200
F2306       F  0.73472437  0.33450962  0.78023331    -0.23200
H2307       H  0.71347320  0.37744037  0.77664420     0.18000
C2308       C  0.67026321  0.40257903  0.75560895     0.26000
C2309       C  0.65655770  0.42453151  0.75855586    -0.11700
C2310       C  0.66272393  0.44660520  0.74560878    -0.25700
C2311       C  0.68277904  0.44546974  0.72879450     0.36900
C2312       C  0.69654659  0.42336615  0.72588931    -0.27300
F2313       F  0.66312943  0.38171518  0.76807666    -0.19500
H2314       H  0.64052743  0.42350029  0.77034602     0.16200
F2315       F  0.68887450  0.46564422  0.71479278    -0.23200
H2316       H  0.71200136  0.42314477  0.71316429     0.18000
C2317       C  0.79301530  0.29493287  0.86500559    -0.27200
C2318       C  0.77467134  0.28975956  0.88272640     0.06400
C2319       C  0.75796541  0.26996230  0.87824163     0.26000
C2320       C  0.75828238  0.25712644  0.85552981    -0.11700
C2321       C  0.77558031  0.26336737  0.83714131    -0.25700
C2322       C  0.79369196  0.28164562  0.84247131     0.36800
C2323       C  0.77045340  0.30735342  0.90369883     0.06400
F2324       F  0.73987192  0.26460296  0.89481696    -0.19400
H2325       H  0.74403306  0.24325758  0.85168656     0.16200
F2326       F  0.81041053  0.28839543  0.82497697    -0.23200
H2327       H  0.80599176  0.31018387  0.86810048     0.18000
C2328       C  0.77028441  0.29924010  0.92854462     0.26000
C2329       C  0.76394235  0.31591062  0.94767875    -0.11700
C2330       C  0.75718107  0.34071441  0.94227393    -0.25700
C2331       C  0.75783108  0.34888178  0.91746356     0.36900
C2332       C  0.76454268  0.33237649  0.89846118    -0.27300
F2333       F  0.77611929  0.27522388  0.93425124    -0.19500
H2334       H  0.76365060  0.30925696  0.96666776     0.16200
F2335       F  0.75221315  0.37290810  0.91157612    -0.23200
H2336       H  0.76444799  0.33896656  0.87944275     0.18000
C2337       C  0.62517725  0.24485737  0.77621419    -0.27200
C2338       C  0.61610628  0.22629031  0.79212082     0.06400
C2339       C  0.63013856  0.20434668  0.79571949     0.26000
C2340       C  0.65372349  0.20208711  0.78494417    -0.11700
C2341       C  0.66343720  0.22171080  0.77061563    -0.25700
C2342       C  0.64857836  0.24271645  0.76570083     0.36800
C2343       C  0.59335123  0.23149291  0.80659151     0.06400
F2344       F  0.62191482  0.18605998  0.81110055    -0.19400
H2345       H  0.66500713  0.18590879  0.78919346     0.16200
F2346       F  0.65730565  0.26188744  0.75168558    -0.23200
H2347       H  0.61453047  0.26168681  0.77286030     0.18000
C2348       C  0.59187852  0.25345476  0.82097962     0.26000
C2349       C  0.57058579  0.25886500  0.83453356    -0.11700
C2350       C  0.54999988  0.24253599  0.83417855    -0.25700
C2351       C  0.55167925  0.22036464  0.81974442     0.36900
C2352       C  0.57307765  0.21501494  0.80610044    -0.27300
F2353       F  0.61156011  0.26930997  0.82276648    -0.19500
H2354       H  0.57113006  0.27540854  0.84603875     0.16200
F2355       F  0.53281627  0.20345760  0.81933171    -0.23200
H2356       H  0.57383024  0.19796937  0.79515952     0.18000
C2357       C  0.88525773  0.25041730  0.70845012    -0.27200
C2358       C  0.88644500  0.25798375  0.68353208     0.06400
C2359       C  0.86463071  0.26573391  0.67147773     0.26000
C2360       C  0.84197839  0.26521391  0.68399619    -0.11700
C2361       C  0.84055487  0.25676948  0.70872635    -0.25700
C2362       C  0.86264886  0.24975055  0.72096736     0.36800
C2363       C  0.91033988  0.25659400  0.67012542     0.06400
F2364       F  0.86521294  0.27372644  0.64757093    -0.19400
H2365       H  0.82541773  0.27079794  0.67402033     0.16200
F2366       F  0.86247289  0.24157563  0.74482008    -0.23200
H2367       H  0.90183516  0.24422710  0.71804514     0.18000
C2368       C  0.93179092  0.26776302  0.68011562     0.26000
C2369       C  0.95465022  0.26442317  0.66859532    -0.11700
C2370       C  0.95686125  0.24947774  0.64705925    -0.25700
C2371       C  0.93509336  0.23920128  0.63650183     0.36900
C2372       C  0.91213369  0.24274542  0.64797934    -0.27300
F2373       F  0.93064162  0.28196305  0.70105261    -0.19500
H2374       H  0.97067426  0.27365880  0.67670040     0.16200
F2375       F  0.93586508  0.22485168  0.61574832    -0.23200
H2376       H  0.89581347  0.23387453  0.64001819     0.18000
C2377       C  0.72027436  0.18406225  0.56225616    -0.27200
C2378       C  0.73622946  0.17627669  0.58141256     0.06400
C2379       C  0.75438777  0.15823227  0.57614746     0.26000
C2380       C  0.75644646  0.14815234  0.55216763    -0.11700
C2381       C  0.74055658  0.15594661  0.53295099    -0.25700
C2382       C  0.72227078  0.17393149  0.53827148     0.36800
C2383       C  0.73405656  0.18703003  0.60682291     0.06400
F2384       F  0.77048313  0.15076277  0.59411279    -0.19400
H2385       H  0.77067818  0.13439953  0.54852946     0.16200
F2386       F  0.70570105  0.18099908  0.52057837    -0.23200
H2387       H  0.70599718  0.19773533  0.56601022     0.18000
C2388       C  0.73828959  0.21265658  0.61118595     0.26000
C2389       C  0.73836132  0.22221441  0.63549119    -0.11700
C2390       C  0.73392504  0.20650338  0.65599399    -0.25700
C2391       C  0.72837299  0.18100777  0.65134800     0.36900
C2392       C  0.72869187  0.17144323  0.62704574    -0.27300
F2393       F  0.74354796  0.22822788  0.59203175    -0.19500
H2394       H  0.74261120  0.24187302  0.63827474     0.16200
F2395       F  0.72347138  0.16501394  0.67025579    -0.23200
H2396       H  0.72507929  0.15168518  0.62400478     0.18000
C2397       C  0.96307675  0.96129864  0.64111234    -0.27200
C2398       C  0.93727725  0.96074203  0.64494416     0.06400
C2399       C  0.92148227  0.95697192  0.62433133     0.26000
C2400       C  0.93122799  0.95572251  0.60037451    -0.11700
C2401       C  0.95685324  0.95760058  0.59653084    -0.25700
C2402       C  0.97282273  0.95958967  0.61710607     0.36800
C2403       C  0.92698361  0.96591960  0.67003824     0.06400
F2404       F  0.89656586  0.95529253  0.62724250    -0.19400
H2405       H  0.91864633  0.95449818  0.58462946     0.16200
F2406       F  0.99760993  0.96219656  0.61382215    -0.23200
H2407       H  0.97567147  0.96451732  0.65655548     0.18000
C2408       C  0.93699389  0.95452335  0.69132715     0.26000
C2409       C  0.92808467  0.96067617  0.71487328    -0.11700
C2410       C  0.90906447  0.97840834  0.71787114    -0.25700
C2411       C  0.89856905  0.98928561  0.69654459     0.36900
C2412       C  0.90759833  0.98323757  0.67294252    -0.27300
F2413       F  0.95519070  0.93716557  0.68939692    -0.19500
H2414       H  0.93602109  0.95128955  0.73083365     0.16200
F2415       F  0.88027787  0.00646793  0.69841882    -0.23200
H2416       H  0.89982089  0.99266028  0.65692101     0.18000
C2417       C  0.92344626  0.99370794  0.85683539    -0.27200
C2418       C  0.94918798  0.99684925  0.85548405     0.06400
C2419       C  0.96075539  0.99508964  0.83225198     0.26000
C2420       C  0.94668215  0.99099860  0.81072477    -0.11700
C2421       C  0.92066790  0.98860598  0.81182883    -0.25700
C2422       C  0.90932880  0.98973869  0.83538155     0.36800
C2423       C  0.96379755  0.00118387  0.87849869     0.06400
F2424       F  0.98562881  0.99826789  0.83019482    -0.19400
H2425       H  0.95655869  0.99066926  0.79338581     0.16200
F2426       F  0.88434602  0.98778462  0.83760398    -0.23200
H2427       H  0.91417073  0.99436856  0.87462394     0.18000
C2428       C  0.95622950  0.01886784  0.89633559     0.26000
C2429       C  0.96860991  0.02069740  0.91917153    -0.11700
C2430       C  0.98889772  0.00516615  0.92450192    -0.25700
C2431       C  0.99726478  0.98847022  0.90603386     0.36900
C2432       C  0.98469996  0.98646688  0.88339234    -0.27300
F2433       F  0.93662139  0.03408334  0.89185062    -0.19500
H2434       H  0.96185433  0.03376545  0.93297089     0.16200
F2435       F  0.01650384  0.97273919  0.91036691    -0.23200
H2436       H  0.99067419  0.97250139  0.87009532     0.18000
C2437       C  0.82775319  0.06308999  0.78540956    -0.27200
C2438       C  0.82521576  0.07589294  0.76287319     0.06400
C2439       C  0.83573894  0.06559879  0.74127648     0.26000
C2440       C  0.84958922  0.04343781  0.74258988    -0.11700
C2441       C  0.85311993  0.03128336  0.76539740    -0.25700
C2442       C  0.84128406  0.04088739  0.78667734     0.36800
C2443       C  0.81260803  0.10052084  0.76244832     0.06400
F2444       F  0.83381782  0.07772926  0.71923492    -0.19400
H2445       H  0.85861367  0.03658400  0.72606723     0.16200
F2446       F  0.84318929  0.02902387  0.80888779    -0.23200
H2447       H  0.81947538  0.07052711  0.80215789     0.18000
C2448       C  0.79115156  0.10427606  0.74808797     0.26000
C2449       C  0.77960892  0.12774052  0.74777397    -0.11700
C2450       C  0.78941153  0.14803985  0.76152461    -0.25700
C2451       C  0.81078937  0.14403468  0.77621746     0.36900
C2452       C  0.82206781  0.12045822  0.77676205    -0.27300
F2453       F  0.78127642  0.08518015  0.73450723    -0.19500
H2454       H  0.76329710  0.13016366  0.73621524     0.16200
F2455       F  0.82095022  0.16285754  0.78997956    -0.23200
H2456       H  0.83854640  0.11784735  0.78805736     0.18000
C2457       C  0.65214300  0.58037320  0.77893599    -0.27200
C2458       C  0.67509226  0.58853362  0.76974636     0.06400
C2459       C  0.68794637  0.57277570  0.75325713     0.26000
C2460       C  0.67803315  0.54945868  0.74628830    -0.11700
C2461       C  0.65497514  0.54138019  0.75531449    -0.25700
C2462       C  0.64208708  0.55721085  0.77176122     0.36800
C2463       C  0.68485245  0.61395142  0.77622563     0.06400
F2464       F  0.70975078  0.58022640  0.74321303    -0.19400
H2465       H  0.68831397  0.53778043  0.73353625     0.16200
F2466       F  0.62018041  0.55011188  0.78174716    -0.23200
H2467       H  0.64198969  0.59192072  0.79190878     0.18000
C2468       C  0.66953013  0.63510703  0.77409189     0.26000
C2469       C  0.67951042  0.65914792  0.77674296    -0.11700
C2470       C  0.70489720  0.66279101  0.78165955    -0.25700
C2471       C  0.71992472  0.64175413  0.78561785     0.36900
C2472       C  0.70993344  0.61753555  0.78290838    -0.27300
F2473       F  0.64529241  0.63272899  0.76753533    -0.19500
H2474       H  0.66755648  0.67509928  0.77357569     0.16200
F2475       F  0.74456636  0.64455648  0.79002032    -0.23200
H2476       H  0.72202434  0.60155508  0.78513663     0.18000
C2477       C  0.73736485  0.65982580  0.59516003    -0.27200
C2478       C  0.73791933  0.68603759  0.59611205     0.06400
C2479       C  0.73666099  0.69956856  0.57380998     0.26000
C2480       C  0.73470185  0.68694822  0.55093548    -0.11700
C2481       C  0.73410369  0.66050275  0.54986581    -0.25700
C2482       C  0.73553289  0.64720355  0.57249750     0.36800
C2483       C  0.73874295  0.69872405  0.62067408     0.06400
F2484       F  0.73679903  0.72499155  0.57417450    -0.19400
H2485       H  0.73398115  0.69819786  0.53435773     0.16200
F2486       F  0.73556461  0.62176002  0.57269952    -0.23200
H2487       H  0.73846585  0.64903201  0.61214629     0.18000
C2488       C  0.72053316  0.69321905  0.63830388     0.26000
C2489       C  0.72197122  0.70347865  0.66211185    -0.11700
C2490       C  0.74164993  0.71949586  0.66915540    -0.25700
C2491       C  0.75974497  0.72542209  0.65129721     0.36900
C2492       C  0.75819256  0.71513663  0.62722279    -0.27300
F2493       F  0.70121477  0.67786278  0.63244590    -0.19500
H2494       H  0.70757296  0.69857253  0.67515849     0.16200
F2495       F  0.77889824  0.74099911  0.65701359    -0.23200
H2496       H  0.77247087  0.71951218  0.61385918     0.18000
C2497       C  0.61899056  0.78910557  0.70760214    -0.27200
C2498       C  0.60074812  0.77217664  0.71571111     0.06400
C2499       C  0.60514373  0.75819300  0.73738290     0.26000
C2500       C  0.62808311  0.75981931  0.74954238    -0.11700
C2501       C  0.64680675  0.77563388  0.74056307    -0.25700
C2502       C  0.64184791  0.79091784  0.71997482     0.36800
C2503       C  0.57832995  0.76751239  0.70023009     0.06400
F2504       F  0.58815905  0.74133563  0.74550959    -0.19400
H2505       H  0.63188100  0.74739097  0.76497160     0.16200
F2506       F  0.65990219  0.80573043  0.71041789    -0.23200
H2507       H  0.61592196  0.80007846  0.69097630     0.18000
C2508       C  0.55447795  0.76951652  0.71017936     0.26000
C2509       C  0.53357123  0.76538313  0.69515729    -0.11700
C2510       C  0.53589142  0.75895851  0.66975653    -0.25700
C2511       C  0.56004660  0.75654735  0.66010955     0.36900
C2512       C  0.58088211  0.76081590  0.67515802    -0.27300
F2513       F  0.55133658  0.77650502  0.73422885    -0.19500
H2514       H  0.51584543  0.76826844  0.70370579     0.16200
F2515       F  0.56354999  0.75074447  0.63580717    -0.23200
H2516       H  0.59915083  0.75894861  0.66716388     0.18000
C2517       C  0.77925606  0.88184996  0.75896962    -0.27200
C2518       C  0.80192565  0.88353073  0.74651922     0.06400
C2519       C  0.80895859  0.86395033  0.73056183     0.26000
C2520       C  0.79432962  0.84235678  0.72847305    -0.11700
C2521       C  0.77246891  0.83980147  0.74235060    -0.25700
C2522       C  0.76459785  0.86027111  0.75695558     0.36800
C2523       C  0.81911703  0.90457398  0.75201112     0.06400
F2524       F  0.83040876  0.86538346  0.71760887    -0.19400
H2525       H  0.80082936  0.82712092  0.71692171     0.16200
F2526       F  0.74358593  0.85896045  0.77061454    -0.23200
H2527       H  0.77353164  0.89672446  0.77138337     0.18000
C2528       C  0.81148957  0.92963604  0.74995879     0.26000
C2529       C  0.82801803  0.94915858  0.75564167    -0.11700
C2530       C  0.85220089  0.94399997  0.76388552    -0.25700
C2531       C  0.85969668  0.91888413  0.76621563     0.36900
C2532       C  0.84328235  0.89943940  0.76028597    -0.27300
F2533       F  0.78824070  0.93521436  0.74202881    -0.19500
H2534       H  0.82187114  0.96835083  0.75375166     0.16200
F2535       F  0.88312804  0.91306143  0.77339917    -0.23200
H2536       H  0.84941591  0.88025068  0.76230528     0.18000
C2537       C  0.73177840  0.82048440  0.88012804    -0.27200
C2538       C  0.74626305  0.80848561  0.89821230     0.06400
C2539       C  0.75527813  0.78435798  0.89327320     0.26000
C2540       C  0.75040361  0.77277548  0.87027597    -0.11700
C2541       C  0.73630983  0.78496913  0.85179145    -0.25700
C2542       C  0.72671544  0.80893196  0.85723921     0.36800
C2543       C  0.75171087  0.82147734  0.92208349     0.06400
F2544       F  0.76956341  0.77241227  0.91032786    -0.19400
H2545       H  0.75830933  0.75451678  0.86670083     0.16200
F2546       F  0.71280677  0.82154597  0.84034697    -0.23200
H2547       H  0.72444415  0.83899360  0.88374489     0.18000
C2548       C  0.76560119  0.84384264  0.92247846     0.26000
C2549       C  0.76793417  0.85783078  0.94445851    -0.11700
C2550       C  0.75628657  0.84985954  0.96627094    -0.25700
C2551       C  0.74321389  0.82702892  0.96616719     0.36900
C2552       C  0.74117953  0.81282067  0.94426172    -0.27300
F2553       F  0.77610803  0.85260258  0.90136142    -0.19500
H2554       H  0.77762233  0.87564479  0.94411910     0.16200
F2555       F  0.73116626  0.81930232  0.98684565    -0.23200
H2556       H  0.73024981  0.79575359  0.94426290     0.18000
C2557       C  0.87309919  0.75205074  0.77904820    -0.27200
C2558       C  0.87833370  0.74642770  0.80401534     0.06400
C2559       C  0.85942014  0.73599758  0.81863493     0.26000
C2560       C  0.83566537  0.73209362  0.80869567    -0.11700
C2561       C  0.83002976  0.73859337  0.78396166    -0.25700
C2562       C  0.84926808  0.74826756  0.76907762     0.36800
C2563       C  0.90349148  0.75103247  0.81477999     0.06400
F2564       F  0.86391236  0.72948078  0.84260447    -0.19400
H2565       H  0.82143968  0.72467173  0.82074013     0.16200
F2566       F  0.84499984  0.75481364  0.74508611    -0.23200
H2567       H  0.88736135  0.76001282  0.76738457     0.18000
C2568       C  0.92472844  0.74103921  0.80347114     0.26000
C2569       C  0.94774355  0.74225225  0.81565171    -0.11700
C2570       C  0.95007701  0.75373975  0.83906856    -0.25700
C2571       C  0.92931333  0.76529117  0.84957218     0.36900
C2572       C  0.90623289  0.76395732  0.83749696    -0.27300
F2573       F  0.92288489  0.72830658  0.78165603    -0.19500
H2574       H  0.96346380  0.73274286  0.80757379     0.16200
F2575       F  0.93093623  0.77602195  0.87243224    -0.23200
H2576       H  0.89023383  0.77212363  0.84640497     0.18000
loop_ 
_geom_bond_atom_site_label_1 
_geom_bond_atom_site_label_2 
_geom_bond_distance 
_geom_bond_site_symmetry_2 
_ccdc_geom_bond_type 
Zn1           O5   1.921       .  S
Zn1           O6   1.966       .  S
Zn1          O10   1.983       .  S
Zn1          O17   1.970       .  S
Zn2           O5   1.979       .  S
Zn2           O7   2.031       .  S
Zn2           O9   2.081       .  S
Zn2          O13   2.043       .  S
Zn3           O5   1.979       .  S
Zn3           O8   2.069       .  S
Zn3          O11   2.032       .  S
Zn3          O14   2.021       .  S
Zn4           O5   1.970       .  S
Zn4          O12   2.007       .  S
Zn4          O15   2.024       .  S
Zn4          O16   2.060       .  S
O6           C18   1.268       .  A
O7           C19   1.277       .  A
O8           C20   1.278       .  A
O9           C18   1.280       .  A
O10          C20   1.270       .  A
O11          C19   1.276       .  A
O12          C21   1.273       .  A
O13          C22   1.277       .  A
O14          C21   1.275       .  A
O15          C22   1.276       .  A
O16          C23   1.276       .  A
O17          C23   1.266       .  A
C18        C2470   1.480       .  S
C19        C2561   1.494       .  S
C20        C2490   1.492       .  S
C21        C2521   1.486       .  S
C22        C2541   1.495       .  S
C23        C2501   1.469       .  S
C24          C25   1.539       .  S
C24          C30   1.525   1_565  S
C24          C28   1.540       .  S
C24        C2421   1.527       .  S
C25          H32   1.086       .  S
C25          C26   1.369       .  D
C26          C27   1.541       .  S
C26        C2530   1.483       .  S
C27          C31   1.547   1_565  S
C27          C29   1.547       .  S
C27          H33   1.109       .  S
C28          H34   1.081       .  S
C28          C29   1.369       .  D
C29        C2410   1.492       .  S
C30          H35   1.087       .  S
C30          C31   1.360       .  D
C31        C2441   1.488       .  S
Zn36         O40   1.920       .  S
Zn36         O41   1.987       .  S
Zn36         O45   1.992       .  S
Zn36         O52   1.970       .  S
Zn37         O40   1.979       .  S
Zn37         O42   2.026       .  S
Zn37         O44   2.073       .  S
Zn37         O48   2.037       .  S
Zn38         O40   1.970       .  S
Zn38         O43   2.066       .  S
Zn38         O46   2.023       .  S
Zn38         O49   2.030       .  S
Zn39         O40   1.979       .  S
Zn39         O47   2.039       .  S
Zn39         O50   2.038       .  S
Zn39         O51   2.075       .  S
O41          C53   1.270       .  A
O42          C54   1.276       .  A
O43          C55   1.277       .  A
O44          C53   1.278       .  A
O45          C55   1.270       .  A
O46          C54   1.276       .  A
O47          C56   1.278       .  A
O48          C57   1.277       .  A
O49          C56   1.276       .  A
O50          C57   1.277       .  A
O51          C58   1.278       .  A
O52          C58   1.269       .  A
C53        C2301   1.489       .  S
C54        C2361   1.489       .  S
C55        C2321   1.478       .  S
C56        C2450   1.491       .  S
C57        C2390   1.495       .  S
C58        C2341   1.477       .  S
C59          C60   1.528       .  S
C59          C65   1.552       .  S
C59          C63   1.542       .  S
C59        C2310   1.539       .  S
C60          H67   1.087       .  S
C60          C61   1.360       .  D
C61          C62   1.542       .  S
C61        C2281   1.483       .  S
C62          C66   1.533       .  S
C62          C64   1.548       .  S
C62          H68   1.110       .  S
C63          H69   1.086       .  S
C63          C64   1.374       .  D
C64        C2461   1.494       .  S
C65          H70   1.083       .  S
C65          C66   1.369       .  D
C66        C2261   1.485       .  S
C71          C72   1.526       .  S
C71          C77   1.536       .  S
C71          C75   1.542       .  S
C71        C2481   1.533       .  S
C72          H79   1.087       .  S
C72          C73   1.361       .  D
C73          C74   1.549       .  S
C73        C2230   1.491       .  S
C74          C78   1.545       .  S
C74          C76   1.552       .  S
C74          H80   1.109       .  S
C75          H81   1.082       .  S
C75          C76   1.371       .  D
C76        C2250   1.494       .  S
C77          H82   1.086       .  S
C77          C78   1.370       .  D
C78        C2210   1.494       .  S
Zn83         O87   1.977       .  S
Zn83         O88   2.040       .  S
Zn83         O92   2.036       .  S
Zn83         O99   2.084       .  S
Zn84         O87   1.979       .  S
Zn84         O89   2.023       .  S
Zn84         O91   2.021       .  S
Zn84         O95   2.062       .  S
Zn85         O87   1.975       .  S
Zn85         O90   2.031       .  S
Zn85         O93   2.016       .  S
Zn85         O96   2.081       .  S
Zn86         O87   1.917       .  S
Zn86         O94   1.980       .  S
Zn86         O97   1.976       .  S
Zn86         O98   1.976       .  S
O88         C100   1.277       .  A
O89         C101   1.276       .  A
O90         C102   1.276       .  A
O91         C100   1.275       .  A
O92         C102   1.277       .  A
O93         C101   1.275       .  A
O94         C103   1.269       .  A
O95         C104   1.277       .  A
O96         C103   1.279       .  A
O97         C104   1.269       .  A
O98         C105   1.269       .  A
O99         C105   1.281       .  A
C100       C2110   1.492       .  S
C101       C2121   1.486       .  S
C102       C2190   1.491       .  S
C103       C2241   1.486       .  S
C104       C2150   1.488       .  S
C105       C2161   1.486       .  S
C106        C107   1.549       .  S
C106        C112   1.533   1_554  S
C106        C110   1.538       .  S
C106       C2061   1.540       .  S
C107        H114   1.081       .  S
C107        C108   1.370       .  D
C108        C109   1.540       .  S
C108       C2101   1.490       .  S
C109        C113   1.542   1_554  S
C109        C111   1.546       .  S
C109        H115   1.109       .  S
C110        H116   1.086       .  S
C110        C111   1.372       .  D
C111       C2081   1.495       .  S
C112        H117   1.087       .  S
C112        C113   1.360       .  D
C113       C2550   1.479       .  S
C118        C119   1.542       .  S
C118        C124   1.526       .  S
C118        C122   1.538       .  S
C118       C2010   1.533       .  S
C119        H126   1.081       .  S
C119        C120   1.367       .  D
C120        C121   1.544       .  S
C120       C2021   1.487       .  S
C121        C125   1.549       .  S
C121        C123   1.547       .  S
C121        H127   1.110       .  S
C122        H128   1.086       .  S
C122        C123   1.369       .  D
C123       C2181   1.490       .  S
C124        H129   1.087       .  S
C124        C125   1.363       .  D
C125       C2041   1.487       .  S
C130        C131   1.534   1_545  S
C130        C136   1.539       .  S
C130        C134   1.542       .  S
C130       C1961   1.530       .  S
C131        H138   1.087       .  S
C131        C132   1.362       .  D
C132        C133   1.537   1_565  S
C132       C1930   1.477       .  S
C133        C137   1.538       .  S
C133        C135   1.540       .  S
C133        H139   1.110       .  S
C134        H140   1.081       .  S
C134        C135   1.367       .  D
C135       C1990   1.480       .  S
C136        H141   1.086       .  S
C136        C137   1.367       .  D
C137       C1941   1.485       .  S
C142        C143   1.533   1_556  S
C142        C148   1.551       .  S
C142        C146   1.537       .  S
C142       C1901   1.538       .  S
C143        H150   1.087       .  S
C143        C144   1.361       .  D
C144        C145   1.540   1_554  S
C144       C1861   1.482       .  S
C145        C149   1.537       .  S
C145        C147   1.546       .  S
C145        H151   1.111       .  S
C146        H152   1.086       .  S
C146        C147   1.370       .  D
C147       C1881   1.493       .  S
C148        H153   1.081       .  S
C148        C149   1.371       .  D
C149       C2330   1.487       .  S
C154        C155   1.548       .  S
C154        C160   1.532       .  S
C154        C158   1.536       .  S
C154       C1781   1.533       .  S
C155        H162   1.082       .  S
C155        C156   1.369       .  D
C156        C157   1.537   1_556  S
C156       C1810   1.480       .  S
C157        C161   1.541   1_554  S
C157        C159   1.549       .  S
C157        H163   1.110       .  S
C158        H164   1.085       .  S
C158        C159   1.371   1_556  D
C159       C1841   1.494       .  S
C160        H165   1.087       .  S
C160        C161   1.358       .  D
C161       C1830   1.480       .  S
C166        C167   1.549       .  S
C166        C172   1.529       .  S
C166        C170   1.544       .  S
C166       C1710   1.538       .  S
C167        H174   1.086       .  S
C167        C168   1.374       .  D
C168        C169   1.536       .  S
C168       C1761   1.491       .  S
C169        C173   1.538       .  S
C169        C171   1.542       .  S
C169        H175   1.110       .  S
C170        H176   1.083       .  S
C170        C171   1.367       .  D
C171       C1721   1.490       .  S
C172        H177   1.087       .  S
C172        C173   1.360       .  D
C173       C1750   1.477       .  S
C178        C179   1.548       .  S
C178        C184   1.525       .  S
C178        C182   1.544       .  S
C178       C1641   1.536       .  S
C179        H186   1.084       .  S
C179        C180   1.374       .  D
C180        C181   1.542       .  S
C180       C1681   1.492       .  S
C181        C185   1.543       .  S
C181        C183   1.542       .  S
C181        H187   1.110       .  S
C182        H188   1.085       .  S
C182        C183   1.370       .  D
C183       C2381   1.490       .  S
C184        H189   1.086       .  S
C184        C185   1.360       .  D
C185       C1670   1.489       .  S
C190        C191   1.536       .  S
C190        C196   1.537       .  S
C190        C194   1.538       .  S
C190       C1581   1.531       .  S
C191        H198   1.085       .  S
C191        C192   1.361       .  D
C192        C193   1.540   1_455  S
C192       C1601   1.479   1_455  S
C193        C197   1.544   1_655  S
C193        C195   1.541       .  S
C193        H199   1.109       .  S
C194        H200   1.084       .  S
C194        C195   1.363   1_455  D
C195       C2141   1.482       .  S
C196        H201   1.086       .  S
C196        C197   1.372       .  D
C197       C1621   1.493       .  S
Zn202       O206   1.935       .  S
Zn202       O207   1.990       .  S
Zn202       O211   2.005       .  S
Zn202       O218   1.998       .  S
Zn203       O206   1.978       .  S
Zn203       O208   2.029       .  S
Zn203       O210   2.054       .  S
Zn203       O214   2.035       .  S
Zn204       O206   1.980       .  S
Zn204       O209   2.051       .  S
Zn204       O212   2.030       .  S
Zn204       O215   2.028       .  S
Zn205       O206   1.963       .  S
Zn205       O213   1.991       .  S
Zn205       O216   2.012       .  S
Zn205       O217   2.051       .  S
O207        C219   1.272       .  A
O208        C220   1.276       .  A
O209        C221   1.277       .  A
O210        C219   1.277       .  A
O211        C221   1.273       .  A
O212        C220   1.275       .  A
O213        C222   1.272       .  A
O214        C223   1.276       .  A
O215        C222   1.274       .  A
O216        C223   1.273       .  A
O217        C224   1.275       .  A
O218        C224   1.269       .  A
C219       C2001   1.476       .  S
C220       C1561   1.493       .  S
C221       C1850   1.486       .  S
C222       C1590   1.472       .  S
C223       C1521   1.484       .  S
C224       C1550   1.471       .  S
C225        C226   1.529       .  S
C225        C231   1.549       .  S
C225        C229   1.534       .  S
C225       C1530   1.532       .  S
C226        H233   1.087       .  S
C226        C227   1.360       .  D
C227        C228   1.548       .  S
C227       C1501   1.484       .  S
C228        C232   1.545       .  S
C228        C230   1.540       .  S
C228        H234   1.111       .  S
C229        H235   1.087       .  S
C229        C230   1.362       .  D
C230       C1470   1.482       .  S
C231        H236   1.082       .  S
C231        C232   1.375       .  D
C232       C1481   1.490       .  S
C237        C238   1.538       .  S
C237        C243   1.540       .  S
C237        C241   1.529       .  S
C237       C1421   1.529       .  S
C238        H245   1.084       .  S
C238        C239   1.360       .  D
C239        C240   1.541       .  S
C239       C2170   1.481       .  S
C240        C244   1.543       .  S
C240        C242   1.548       .  S
C240        H246   1.107       .  S
C241        H247   1.086       .  S
C241        C242   1.368       .  D
C242       C1410   1.493       .  S
C243        H248   1.085       .  S
C243        C244   1.369       .  D
C244       C1441   1.489       .  S
Zn249       O253   1.915       .  S
Zn249       O254   1.954       .  S
Zn249       O258   1.979       .  S
Zn249       O265   1.961       .  S
Zn250       O253   1.982       .  S
Zn250       O255   2.044       .  S
Zn250       O257   2.081       .  S
Zn250       O261   2.032       .  S
Zn251       O253   1.963       .  S
Zn251       O256   2.054       .  S
Zn251       O259   2.018       .  S
Zn251       O262   2.020       .  S
Zn252       O253   1.973       .  S
Zn252       O260   2.032       .  S
Zn252       O263   2.025       .  S
Zn252       O264   2.082       .  S
O254        C266   1.267       .  A
O255        C267   1.277       .  A
O256        C268   1.276       .  A
O257        C266   1.280       .  A
O258        C268   1.267       .  A
O259        C267   1.275       .  A
O260        C269   1.277       .  A
O261        C270   1.277       .  A
O262        C269   1.276       .  A
O263        C270   1.277       .  A
O264        C271   1.279       .  A
O265        C271   1.266       .  A
C266       C1381   1.488       .  S
C267       C1650   1.493       .  S
C268       C1450   1.469       .  S
C269       C1370   1.489       .  S
C270       C1341   1.492       .  S
C271       C1870   1.479       .  S
C272        C273   1.542   1_565  S
C272        C278   1.535       .  S
C272        C276   1.530       .  S
C272       C1301   1.529       .  S
C273        H280   1.086       .  S
C273        C274   1.372       .  D
C274        C275   1.542   1_545  S
C274       C1350   1.490       .  S
C275        C279   1.542       .  S
C275        C277   1.540       .  S
C275        H281   1.110       .  S
C276        H282   1.087       .  S
C276        C277   1.361       .  D
C277       C1330   1.482       .  S
C278        H283   1.081       .  S
C278        C279   1.363       .  D
C279       C2130   1.476       .  S
C284        C285   1.526       .  S
C284        C290   1.553       .  S
C284        C288   1.538       .  S
C284       C2350   1.533       .  S
C285        H292   1.087       .  S
C285        C286   1.359       .  D
C286        C287   1.540       .  S
C286       C1270   1.481       .  S
C287        C291   1.537       .  S
C287        C289   1.540       .  S
C287        H293   1.109       .  S
C288        H294   1.086       .  S
C288        C289   1.368       .  D
C289       C1281   1.483       .  S
C290        H295   1.081       .  S
C290        C291   1.372       .  D
C291       C1241   1.489       .  S
Zn296       O300   1.968       .  S
Zn296       O301   2.019       .  S
Zn296       O305   2.009       .  S
Zn296       O312   2.052       .  S
Zn297       O300   1.962       .  S
Zn297       O302   2.011       .  S
Zn297       O304   2.014       .  S
Zn297       O308   2.051       .  S
Zn298       O300   1.985       .  S
Zn298       O303   2.035       .  S
Zn298       O306   2.042       .  S
Zn298       O309   2.072       .  S
Zn299       O300   1.917       .  S
Zn299       O307   1.963       .  S
Zn299       O310   1.976       .  S
Zn299       O311   1.971       .  S
O301        C313   1.275       .  A
O302        C314   1.275       .  A
O303        C315   1.276       .  A
O304        C313   1.274       .  A
O305        C315   1.274       .  A
O306        C314   1.277       .  A
O307        C316   1.269       .  A
O308        C317   1.275       .  A
O309        C316   1.279       .  A
O310        C317   1.267       .  A
O311        C318   1.267       .  A
O312        C318   1.274       .  A
C313       C1950   1.486       .  S
C314       C1221   1.490       .  S
C315       C1290   1.486       .  S
C316       C1730   1.484       .  S
C317       C1190   1.466       .  S
C318       C1201   1.468       .  S
C319        C320   1.542       .  S
C319        C325   1.523       .  S
C319        C323   1.541       .  S
C319       C1181   1.533       .  S
C320        H327   1.086       .  S
C320        C321   1.373       .  D
C321        C322   1.542   1_455  S
C321       C1150   1.489   1_455  S
C322        C326   1.545   1_655  S
C322        C324   1.546       .  S
C322        H328   1.107       .  S
C323        H329   1.081       .  S
C323        C324   1.370   1_455  D
C324       C2370   1.499       .  S
C325        H330   1.087       .  S
C325        C326   1.360       .  D
C326       C1170   1.483       .  S
C331        C332   1.522       .  S
C331        C337   1.541       .  S
C331        C335   1.538       .  S
C331       C1110   1.528       .  S
C332        H339   1.087       .  S
C332        C333   1.359       .  D
C333        C334   1.550       .  S
C333       C1081   1.487       .  S
C334        C338   1.540       .  S
C334        C336   1.548   1_455  S
C334        H340   1.108   1_455  S
C335        H341   1.081       .  S
C335        C336   1.369   1_455  D
C336       C1390   1.497       .  S
C337        H342   1.086       .  S
C337        C338   1.370       .  D
C338       C1130   1.486       .  S
Zn343       O347   1.911   1_545  S
Zn343       O348   1.945   1_545  S
Zn343       O352   1.972       .  S
Zn343       O359   1.981       .  S
Zn344       O347   1.981       .  S
Zn344       O349   2.039   1_455  S
Zn344       O351   2.080       .  S
Zn344       O355   2.049       .  S
Zn345       O347   1.974   1_645  S
Zn345       O350   2.064       .  S
Zn345       O353   2.029   1_545  S
Zn345       O356   2.017   1_554  S
Zn346       O347   1.959   1_556  S
Zn346       O354   1.995       .  S
Zn346       O357   2.014       .  S
Zn346       O358   2.061       .  S
O348        C360   1.267       .  A
O349        C361   1.277       .  A
O350        C362   1.277   1_655  A
O351        C360   1.280       .  A
O352        C362   1.268       .  A
O353        C361   1.276       .  A
O354        C363   1.272   1_465  A
O355        C364   1.278   1_554  A
O356        C363   1.275       .  A
O357        C364   1.275       .  A
O358        C365   1.276   1_566  A
O359        C365   1.268       .  A
C360       C1061   1.482       .  S
C361       C2090   1.494       .  S
C362       C1121   1.483       .  S
C363       C2430   1.479       .  S
C364       C1030   1.493       .  S
C365       C1041   1.480   1_554  S
Zn366       O370   1.918       .  S
Zn366       O371   1.973       .  S
Zn366       O375   1.970       .  S
Zn366       O382   1.978       .  S
Zn367       O370   1.981       .  S
Zn367       O372   2.052       .  S
Zn367       O374   2.071       .  S
Zn367       O378   2.022       .  S
Zn368       O370   1.955       .  S
Zn368       O373   2.028       .  S
Zn368       O376   1.998       .  S
Zn368       O379   1.997       .  S
Zn369       O370   1.980       .  S
Zn369       O377   2.066       .  S
Zn369       O380   2.010       .  S
Zn369       O381   2.090       .  S
O371        C383   1.268       .  A
O372        C384   1.277       .  A
O373        C385   1.272       .  A
O374        C383   1.279       .  A
O375        C385   1.268       .  A
O376        C384   1.271       .  A
O377        C386   1.279       .  A
O378        C387   1.277       .  A
O379        C386   1.273       .  A
O380        C387   1.275       .  A
O381        C388   1.280       .  A
O382        C388   1.268       .  A
C383       C1001   1.488       .  S
C384        C930   1.488       .  S
C385       C1101   1.460       .  S
C386        C950   1.494       .  S
C387        C970   1.484       .  S
C388        C990   1.485       .  S
C389        C390   1.530   1_565  S
C389        C395   1.549       .  S
C389        C393   1.533       .  S
C389        C910   1.535       .  S
C390        H397   1.087       .  S
C390        C391   1.362       .  D
C391        C392   1.551   1_545  S
C391        C981   1.490       .  S
C392        C396   1.543       .  S
C392        C394   1.546       .  S
C392        H398   1.109       .  S
C393        H399   1.086       .  S
C393        C394   1.366       .  D
C394       C1070   1.495       .  S
C395        H400   1.082       .  S
C395        C396   1.373       .  D
C396       C1570   1.489       .  S
Zn401       O405   1.926   1_545  S
Zn401       O406   1.990       .  S
Zn401       O410   1.970   1_545  S
Zn401       O417   1.970       .  S
Zn402       O405   1.964   1_445  S
Zn402       O407   2.022   1_545  S
Zn402       O409   2.042       .  S
Zn402       O413   2.012       .  S
Zn403       O405   1.971       .  S
Zn403       O408   2.062       .  S
Zn403       O411   2.034   1_655  S
Zn403       O414   2.023       .  S
Zn404       O405   1.976       .  S
Zn404       O412   2.026       .  S
Zn404       O415   2.037       .  S
Zn404       O416   2.079       .  S
O406        C418   1.270       .  A
O407        C419   1.275       .  A
O408        C420   1.277       .  A
O409        C418   1.276   1_455  A
O410        C420   1.267       .  A
O411        C419   1.276       .  A
O412        C421   1.277       .  A
O413        C422   1.273   1_545  A
O414        C421   1.276       .  A
O415        C422   1.276   1_655  A
O416        C423   1.280   1_565  A
O417        C423   1.267       .  A
C418       C1161   1.481       .  S
C419       C1490   1.492       .  S
C420       C2401   1.469       .  S
C421       C1630   1.488       .  S
C422        C901   1.484       .  S
C423       C1661   1.485       .  S
C424        C425   1.528       .  S
C424        C430   1.551       .  S
C424        C428   1.535   1_556  S
C424       C1230   1.535       .  S
C425        H432   1.087       .  S
C425        C426   1.361       .  D
C426        C427   1.546   1_556  S
C426       C1050   1.486   1_556  S
C427        C431   1.541       .  S
C427        C429   1.545       .  S
C427        H433   1.109       .  S
C428        H434   1.085       .  S
C428        C429   1.367       .  D
C429       C1010   1.492       .  S
C430        H435   1.082       .  S
C430        C431   1.374   1_556  D
C431        C890   1.494       .  S
Zn436       O440   1.927   1_556  S
Zn436       O441   1.979       .  S
Zn436       O445   1.987   1_556  S
Zn436       O452   1.973       .  S
Zn437       O440   1.973       .  S
Zn437       O442   2.014       .  S
Zn437       O444   2.064       .  S
Zn437       O448   2.029       .  S
Zn438       O440   1.972   1_565  S
Zn438       O443   2.074   1_565  S
Zn438       O446   2.016   1_565  S
Zn438       O449   2.032       .  S
Zn439       O440   1.980   1_566  S
Zn439       O447   2.036   1_556  S
Zn439       O450   2.040       .  S
Zn439       O451   2.057       .  S
O441        C453   1.268       .  A
O442        C454   1.275       .  A
O443        C455   1.277       .  A
O444        C453   1.278   1_554  A
O445        C455   1.268       .  A
O446        C454   1.275       .  A
O447        C456   1.276       .  A
O448        C457   1.275   1_544  A
O449        C456   1.277       .  A
O450        C457   1.276       .  A
O451        C458   1.278   1_565  A
O452        C458   1.270       .  A
C453       C1261   1.477       .  S
C454       C1321   1.482       .  S
C455        C881   1.476       .  S
C456       C2050   1.490       .  S
C457       C2070   1.493       .  S
C458       C1970   1.486       .  S
Zn459       O463   1.916       .  S
Zn459       O464   1.936       .  S
Zn459       O468   1.988       .  S
Zn459       O475   1.969       .  S
Zn460       O463   1.986   1_565  S
Zn460       O465   2.053       .  S
Zn460       O467   2.079       .  S
Zn460       O471   2.045       .  S
Zn461       O463   1.970   1_565  S
Zn461       O466   2.071   1_565  S
Zn461       O469   2.028       .  S
Zn461       O472   2.016   1_565  S
Zn462       O463   1.975       .  S
Zn462       O470   2.009       .  S
Zn462       O473   2.030       .  S
Zn462       O474   2.070       .  S
O464        C476   1.266   1_545  A
O465        C477   1.279       .  A
O466        C478   1.277       .  A
O467        C476   1.280       .  A
O468        C478   1.268       .  A
O469        C477   1.276       .  A
O470        C479   1.275       .  A
O471        C480   1.278       .  A
O472        C479   1.276       .  A
O473        C480   1.276   1_545  A
O474        C481   1.276       .  A
O475        C481   1.266       .  A
C476       C1310   1.485       .  S
C477        C850   1.498       .  S
C478       C1690   1.476       .  S
C479       C1981   1.479       .  S
C480       C1510   1.496       .  S
C481        C861   1.476       .  S
C482        C483   1.545       .  S
C482        C488   1.531       .  S
C482        C486   1.542       .  S
C482       C1361   1.537       .  S
C483        H490   1.086       .  S
C483        C484   1.372       .  D
C484        C485   1.539       .  S
C484        C870   1.490       .  S
C485        C489   1.546       .  S
C485        C487   1.536       .  S
C485        H491   1.110       .  S
C486        H492   1.082       .  S
C486        C487   1.364       .  D
C487        C961   1.483       .  S
C488        H493   1.086       .  S
C488        C489   1.365       .  D
C489        C830   1.489       .  S
Zn494       O498   1.930       .  S
Zn494       O499   1.978       .  S
Zn494       O503   1.987       .  S
Zn494       O510   1.989       .  S
Zn495       O498   1.971   1_655  S
Zn495       O500   2.026   1_655  S
Zn495       O502   2.072   1_655  S
Zn495       O506   2.023       .  S
Zn496       O498   1.978   1_554  S
Zn496       O501   2.052       .  S
Zn496       O504   2.029       .  S
Zn496       O507   2.017       .  S
Zn497       O498   1.978   1_655  S
Zn497       O505   2.023   1_556  S
Zn497       O508   2.048       .  S
Zn497       O509   2.061       .  S
O499        C511   1.268       .  A
O500        C512   1.276   1_556  A
O501        C513   1.276   1_554  A
O502        C511   1.278       .  A
O503        C513   1.270       .  A
O504        C512   1.276       .  A
O505        C514   1.275       .  A
O506        C515   1.275       .  A
O507        C514   1.274   1_455  A
O508        C515   1.277       .  A
O509        C516   1.278       .  A
O510        C516   1.270   1_455  A
C511       C1770   1.475       .  S
C512       C1090   1.487       .  S
C513       C1801   1.479       .  S
C514       C1430   1.487       .  S
C515       C1890   1.488       .  S
C516        C801   1.477       .  S
Zn517       O521   1.927       .  S
Zn517       O522   1.970       .  S
Zn517       O526   1.965       .  S
Zn517       O533   1.988       .  S
Zn518       O521   1.982       .  S
Zn518       O523   2.053       .  S
Zn518       O525   2.079       .  S
Zn518       O529   2.037       .  S
Zn519       O521   1.977       .  S
Zn519       O524   2.059       .  S
Zn519       O527   2.032       .  S
Zn519       O530   2.028   1_556  S
Zn520       O521   1.974   1_554  S
Zn520       O528   2.025       .  S
Zn520       O531   2.013       .  S
Zn520       O532   2.060       .  S
O522        C534   1.268       .  A
O523        C535   1.280       .  A
O524        C536   1.276       .  A
O525        C534   1.279       .  A
O526        C536   1.266       .  A
O527        C535   1.276       .  A
O528        C537   1.275       .  A
O529        C538   1.277   1_556  A
O530        C537   1.276       .  A
O531        C538   1.274       .  A
O532        C539   1.276   1_554  A
O533        C539   1.269       .  A
C534       C2270   1.480       .  S
C535       C1821   1.497       .  S
C536       C1250   1.465       .  S
C537        C781   1.489       .  S
C538       C2030   1.489       .  S
C539       C1910   1.480       .  S
Zn540       O544   1.966   1_455  S
Zn540       O545   2.006       .  S
Zn540       O549   2.054       .  S
Zn540       O556   2.032       .  S
Zn541       O544   1.975       .  S
Zn541       O546   2.089       .  S
Zn541       O548   2.038       .  S
Zn541       O552   2.035       .  S
Zn542       O544   1.914       .  S
Zn542       O547   1.983       .  S
Zn542       O550   1.970       .  S
Zn542       O553   1.965       .  S
Zn543       O544   1.969       .  S
Zn543       O551   2.058       .  S
Zn543       O554   2.020       .  S
Zn543       O555   2.017   1_655  S
O545        C557   1.275   1_455  A
O546        C558   1.280       .  A
O547        C559   1.269       .  A
O548        C557   1.277       .  A
O549        C559   1.277   1_455  A
O550        C558   1.268       .  A
O551        C560   1.277       .  A
O552        C561   1.277       .  A
O553        C560   1.268       .  A
O554        C561   1.276       .  A
O555        C562   1.273       .  A
O556        C562   1.275       .  A
C557       C1741   1.484   1_655  S
C558       C2221   1.483       .  S
C559       C1610   1.482       .  S
C560       C1401   1.483       .  S
C561       C1141   1.490       .  S
C562        C761   1.485       .  S
C563        C564   1.548       .  S
C563        C569   1.535       .  S
C563        C567   1.538       .  S
C563        C770   1.536       .  S
C564        H571   1.081       .  S
C564        C565   1.370       .  D
C565        C566   1.536       .  S
C565       C1210   1.481       .  S
C566        C570   1.540       .  S
C566        C568   1.544       .  S
C566        H572   1.111       .  S
C567        H573   1.086       .  S
C567        C568   1.368       .  D
C568        C750   1.491       .  S
C569        H574   1.087       .  S
C569        C570   1.362       .  D
C570        C941   1.481       .  S
Zn575       O579   1.978       .  S
Zn575       O580   2.019       .  S
Zn575       O584   2.039       .  S
Zn575       O591   2.058       .  S
Zn576       O579   1.978       .  S
Zn576       O581   2.016       .  S
Zn576       O583   2.037       .  S
Zn576       O587   2.066       .  S
Zn577       O579   1.990       .  S
Zn577       O582   2.052       .  S
Zn577       O585   2.051       .  S
Zn577       O588   2.100       .  S
Zn578       O579   1.925       .  S
Zn578       O586   1.970       .  S
Zn578       O589   1.986       .  S
Zn578       O590   1.972       .  S
O580        C592   1.275       .  A
O581        C593   1.276       .  A
O582        C594   1.279       .  A
O583        C592   1.276       .  A
O584        C594   1.278       .  A
O585        C593   1.279       .  A
O586        C595   1.269       .  A
O587        C596   1.277       .  A
O588        C595   1.282       .  A
O589        C596   1.269       .  A
O590        C597   1.267       .  A
O591        C597   1.276       .  A
C592       C2201   1.491       .  S
C593       C2290   1.492       .  S
C594        C710   1.499       .  S
C595        C741   1.493       .  S
C596        C821   1.486       .  S
C597        C730   1.472       .  S
C598        C599   1.540       .  S
C598        C604   1.526       .  S
C598        C602   1.543       .  S
C598        C790   1.529       .  S
C599        H606   1.085       .  S
C599        C600   1.369       .  D
C600        C601   1.542       .  S
C600       C1541   1.491       .  S
C601        C605   1.542       .  S
C601        C603   1.546       .  S
C601        H607   1.110       .  S
C602        H608   1.083       .  S
C602        C603   1.371       .  D
C603        C721   1.488       .  S
C604        H609   1.087       .  S
C604        C605   1.358       .  D
C605        C921   1.479       .  S
C610        C611   1.549   1_655  S
C610        C616   1.528       .  S
C610        C614   1.534       .  S
C610        C810   1.535       .  S
C611        H618   1.081       .  S
C611        C612   1.373       .  D
C612        C613   1.543   1_455  S
C612        C681   1.493       .  S
C613        C617   1.546       .  S
C613        C615   1.550       .  S
C613        H619   1.108       .  S
C614        H620   1.086       .  S
C614        C615   1.369       .  D
C615       C1021   1.500   1_655  S
C616        H621   1.087       .  S
C616        C617   1.359       .  D
C617       C2570   1.480       .  S
Zn622       O626   1.924       .  S
Zn622       O627   1.979       .  S
Zn622       O631   1.978       .  S
Zn622       O638   1.973       .  S
Zn623       O626   1.983       .  S
Zn623       O628   2.033       .  S
Zn623       O630   2.073       .  S
Zn623       O634   2.033       .  S
Zn624       O626   1.977       .  S
Zn624       O629   2.070       .  S
Zn624       O632   2.011       .  S
Zn624       O635   2.033       .  S
Zn625       O626   1.977       .  S
Zn625       O633   2.029       .  S
Zn625       O636   2.028       .  S
Zn625       O637   2.067       .  S
O627        C639   1.269       .  A
O628        C640   1.276       .  A
O629        C641   1.277       .  A
O630        C639   1.279       .  A
O631        C641   1.267       .  A
O632        C640   1.275       .  A
O633        C642   1.277       .  A
O634        C643   1.276       .  A
O635        C642   1.276       .  A
O636        C643   1.276       .  A
O637        C644   1.278       .  A
O638        C644   1.268       .  A
C639       C1701   1.490       .  S
C640       C1461   1.486       .  S
C641        C690   1.473       .  S
C642       C1921   1.492       .  S
C643        C661   1.490       .  S
C644       C1790   1.479       .  S
C645        C646   1.528       .  S
C645        C651   1.540       .  S
C645        C649   1.543       .  S
C645       C2510   1.535       .  S
C646        H653   1.087       .  S
C646        C647   1.361       .  D
C647        C648   1.551       .  S
C647        C841   1.488       .  S
C648        C652   1.550       .  S
C648        C650   1.542       .  S
C648        H654   1.110       .  S
C649        H655   1.081       .  S
C649        C650   1.365       .  D
C650        C670   1.484       .  S
C651        H656   1.086       .  S
C651        C652   1.373       .  D
C652        C701   1.498       .  S
C657        C658   1.404       .  A
C657        C662   1.401       .  A
C657        H667   1.083       .  S
C658        C663   1.490       .  S
C658        C659   1.408       .  A
C659        C660   1.401       .  A
C659        F664   1.358       .  S
C660        C661   1.407       .  A
C660        H665   1.083       .  S
C661        C662   1.412       .  A
C662        F666   1.357       .  S
C663        C668   1.410       .  A
C663        C672   1.405       .  A
C668        C669   1.404       .  A
C668        F673   1.357       .  S
C669        C670   1.404       .  A
C669        H674   1.083       .  S
C670        C671   1.406       .  A
C671        C672   1.398       .  A
C671        F675   1.358       .  S
C672        H676   1.083       .  S
C677        C678   1.406       .  A
C677        C682   1.403       .  A
C677        H687   1.083       .  S
C678        C683   1.492       .  S
C678        C679   1.409       .  A
C679        C680   1.400       .  A
C679        F684   1.357       .  S
C680        C681   1.405       .  A
C680        H685   1.083       .  S
C681        C682   1.409       .  A
C682        F686   1.357       .  S
C683        C688   1.410       .  A
C683        C692   1.406       .  A
C688        C689   1.403       .  A
C688        F693   1.357       .  S
C689        C690   1.403       .  A
C689        H694   1.083       .  S
C690        C691   1.404       .  A
C691        C692   1.401       .  A
C691        F695   1.358       .  S
C692        H696   1.083       .  S
C697        C698   1.405       .  A
C697        C702   1.400       .  A
C697        H707   1.083       .  S
C698        C703   1.498       .  S
C698        C699   1.411       .  A
C699        C700   1.409       .  A
C699        F704   1.357       .  S
C700        C701   1.407       .  A
C700        H705   1.083       .  S
C701        C702   1.410       .  A
C702        F706   1.357       .  S
C703        C708   1.408       .  A
C703        C712   1.407       .  A
C708        C709   1.404       .  A
C708        F713   1.357       .  S
C709        C710   1.410       .  A
C709        H714   1.083       .  S
C710        C711   1.412       .  A
C711        C712   1.404       .  A
C711        F715   1.357       .  S
C712        H716   1.083       .  S
C717        C718   1.408       .  A
C717        C722   1.399       .  A
C717        H727   1.083       .  S
C718        C723   1.489       .  S
C718        C719   1.406       .  A
C719        C720   1.400       .  A
C719        F724   1.357       .  S
C720        C721   1.408       .  A
C720        H725   1.083       .  S
C721        C722   1.404       .  A
C722        F726   1.357       .  S
C723        C728   1.407       .  A
C723        C732   1.409       .  A
C728        C729   1.395       .  A
C728        F733   1.357       .  S
C729        C730   1.402       .  A
C729        H734   1.084       .  S
C730        C731   1.405       .  A
C731        C732   1.404       .  A
C731        F735   1.358       .  S
C732        H736   1.083       .  S
C737        C738   1.412       .  A
C737        C742   1.411       .  A
C737        H747   1.083       .  S
C738        C743   1.497       .  S
C738        C739   1.406       .  A
C739        C740   1.393       .  A
C739        F744   1.358       .  S
C740        C741   1.408       .  A
C740        H745   1.083       .  S
C741        C742   1.408       .  A
C742        F746   1.357       .  S
C743        C748   1.410       .  A
C743        C752   1.408       .  A
C748        C749   1.404       .  A
C748        F753   1.357       .  S
C749        C750   1.406       .  A
C749        H754   1.083       .  S
C750        C751   1.407       .  A
C751        C752   1.400       .  A
C751        F755   1.358       .  S
C752        H756   1.083       .  S
C757        C758   1.403       .  A
C757        C762   1.398       .  A
C757        H767   1.083       .  S
C758        C763   1.485       .  S
C758        C759   1.407       .  A
C759        C760   1.403       .  A
C759        F764   1.357       .  S
C760        C761   1.406       .  A
C760        H765   1.083       .  S
C761        C762   1.410       .  A
C762        F766   1.358       .  S
C763        C768   1.405       .  A
C763        C772   1.401       .  A
C768        C769   1.400       .  A
C768        F773   1.358       .  S
C769        C770   1.412       .  A
C769        H774   1.076       .  S
C770        C771   1.415       .  A
C771        C772   1.400       .  A
C771        F775   1.358       .  S
C772        H776   1.083       .  S
C777        C778   1.404       .  A
C777        C782   1.400       .  A
C777        H787   1.083       .  S
C778        C783   1.488       .  S
C778        C779   1.408       .  A
C779        C780   1.398       .  A
C779        F784   1.358       .  S
C780        C781   1.406       .  A
C780        H785   1.083       .  S
C781        C782   1.412       .  A
C782        F786   1.357       .  S
C783        C788   1.407       .  A
C783        C792   1.402       .  A
C788        C789   1.403       .  A
C788        F793   1.357       .  S
C789        C790   1.412       .  A
C789        H794   1.079       .  S
C790        C791   1.413       .  A
C791        C792   1.394       .  A
C791        F795   1.357       .  S
C792        H796   1.083       .  S
C797        C798   1.402       .  A
C797        C802   1.396       .  A
C797        H807   1.083       .  S
C798        C803   1.484       .  S
C798        C799   1.409       .  A
C799        C800   1.405       .  A
C799        F804   1.357       .  S
C800        C801   1.404       .  A
C800        H805   1.083       .  S
C801        C802   1.406       .  A
C802        F806   1.358       .  S
C803        C808   1.405   1_655  A
C803        C812   1.399       .  A
C808        C809   1.401       .  A
C808        F813   1.358       .  S
C809        C810   1.411   1_455  A
C809        H814   1.077       .  S
C810        C811   1.416       .  A
C811        C812   1.399       .  A
C811        F815   1.358       .  S
C812        H816   1.083       .  S
C817        C818   1.402       .  A
C817        C822   1.394       .  A
C817        H827   1.083       .  S
C818        C823   1.490       .  S
C818        C819   1.411       .  A
C819        C820   1.407       .  A
C819        F824   1.357       .  S
C820        C821   1.406       .  A
C820        H825   1.083       .  S
C821        C822   1.410       .  A
C822        F826   1.358       .  S
C823        C828   1.410       .  A
C823        C832   1.404       .  A
C828        C829   1.401       .  A
C828        F833   1.357       .  S
C829        C830   1.402       .  A
C829        H834   1.082       .  S
C830        C831   1.411       .  A
C831        C832   1.400       .  A
C831        F835   1.358       .  S
C832        H836   1.083       .  S
C837        C838   1.407       .  A
C837        C842   1.407       .  A
C837        H847   1.083       .  S
C838        C843   1.486       .  S
C838        C839   1.403       .  A
C839        C840   1.401       .  A
C839        F844   1.357       .  S
C840        C841   1.407       .  A
C840        H845   1.083       .  S
C841        C842   1.407       .  A
C842        F846   1.357       .  S
C843        C848   1.403       .  A
C843        C852   1.402       .  A
C848        C849   1.405       .  A
C848        F853   1.357       .  S
C849        C850   1.410       .  A
C849        H854   1.083       .  S
C850        C851   1.414       .  A
C851        C852   1.403       .  A
C851        F855   1.358       .  S
C852        H856   1.083       .  S
C857        C858   1.399       .  A
C857        C862   1.395       .  A
C857        H867   1.084       .  S
C858        C863   1.477       .  S
C858        C859   1.407       .  A
C859        C860   1.406       .  A
C859        F864   1.357       .  S
C860        C861   1.404       .  A
C860        H865   1.083       .  S
C861        C862   1.408       .  A
C862        F866   1.358       .  S
C863        C868   1.404       .  A
C863        C872   1.400       .  A
C868        C869   1.400       .  A
C868        F873   1.357       .  S
C869        C870   1.405       .  A
C869        H874   1.083       .  S
C870        C871   1.412       .  A
C871        C872   1.401       .  A
C871        F875   1.356       .  S
C872        H876   1.083       .  S
C877        C878   1.407       .  A
C877        C882   1.403       .  A
C877        H887   1.083       .  S
C878        C883   1.493       .  S
C878        C879   1.410       .  A
C879        C880   1.402       .  A
C879        F884   1.358       .  S
C880        C881   1.403       .  A
C880        H885   1.083       .  S
C881        C882   1.405       .  A
C882        F886   1.357       .  S
C883        C888   1.409       .  A
C883        C892   1.407       .  A
C888        C889   1.399       .  A
C888        F893   1.357       .  S
C889        C890   1.405       .  A
C889        H894   1.083       .  S
C890        C891   1.409       .  A
C891        C892   1.405       .  A
C891        F895   1.357       .  S
C892        H896   1.083       .  S
C897        C898   1.404       .  A
C897        C902   1.401       .  A
C897        H907   1.083       .  S
C898        C903   1.486       .  S
C898        C899   1.407   1_565  A
C899        C900   1.400       .  A
C899        F904   1.357       .  S
C900        C901   1.406   1_545  A
C900        H905   1.083       .  S
C901        C902   1.410       .  A
C902        F906   1.358   1_455  S
C903        C908   1.407       .  A
C903        C912   1.400   1_565  A
C908        C909   1.403       .  A
C908        F913   1.357       .  S
C909        C910   1.411       .  A
C909        H914   1.078       .  S
C910        C911   1.416   1_565  A
C911        C912   1.398       .  A
C911        F915   1.358       .  S
C912        H916   1.083       .  S
C917        C918   1.408       .  A
C917        C922   1.403       .  A
C917        H927   1.083       .  S
C918        C923   1.486       .  S
C918        C919   1.406       .  A
C919        C920   1.397       .  A
C919        F924   1.358       .  S
C920        C921   1.403       .  A
C920        H925   1.084       .  S
C921        C922   1.404       .  A
C922        F926   1.357       .  S
C923        C928   1.403       .  A
C923        C932   1.407       .  A
C928        C929   1.398       .  A
C928        F933   1.357       .  S
C929        C930   1.409       .  A
C929        H934   1.083       .  S
C930        C931   1.409       .  A
C931        C932   1.403       .  A
C931        F935   1.357       .  S
C932        H936   1.083       .  S
C937        C938   1.407       .  A
C937        C942   1.401       .  A
C937        H947   1.083       .  S
C938        C943   1.487       .  S
C938        C939   1.406       .  A
C939        C940   1.403       .  A
C939        F944   1.357       .  S
C940        C941   1.405       .  A
C940        H945   1.083       .  S
C941        C942   1.402       .  A
C942        F946   1.357       .  S
C943        C948   1.403       .  A
C943        C952   1.406       .  A
C948        C949   1.395       .  A
C948        F953   1.358       .  S
C949        C950   1.409       .  A
C949        H954   1.083       .  S
C950        C951   1.412       .  A
C951        C952   1.408       .  A
C951        F955   1.357       .  S
C952        H956   1.083       .  S
C957        C958   1.399       .  A
C957        C962   1.392       .  A
C957        H967   1.084       .  S
C958        C963   1.479       .  S
C958        C959   1.409       .  A
C959        C960   1.402       .  A
C959        F964   1.357       .  S
C960        C961   1.403       .  A
C960        H965   1.083       .  S
C961        C962   1.410       .  A
C962        F966   1.358       .  S
C963        C968   1.406       .  A
C963        C972   1.401       .  A
C968        C969   1.396       .  A
C968        F973   1.358       .  S
C969        C970   1.405       .  A
C969        H974   1.083       .  S
C970        C971   1.413       .  A
C971        C972   1.399       .  A
C971        F975   1.358       .  S
C972        H976   1.083       .  S
C977        C978   1.410       .  A
C977        C982   1.403       .  A
C977        H987   1.083       .  S
C978        C983   1.497       .  S
C978        C979   1.408       .  A
C979        C980   1.402       .  A
C979        F984   1.357       .  S
C980        C981   1.406       .  A
C980        H985   1.083       .  S
C981        C982   1.404       .  A
C982        F986   1.354       .  S
C983        C988   1.413       .  A
C983        C992   1.404       .  A
C988        C989   1.409       .  A
C988        F993   1.357       .  S
C989        C990   1.405       .  A
C989        H994   1.083       .  S
C990        C991   1.408       .  A
C991        C992   1.397       .  A
C991        F995   1.358       .  S
C992        H996   1.083       .  S
C997        C998   1.399       .  A
C997       C1002   1.393       .  A
C997       H1007   1.084       .  S
C998       C1003   1.485       .  S
C998        C999   1.410       .  A
C999       C1000   1.406       .  A
C999       F1004   1.357       .  S
C1000      C1001   1.406       .  A
C1000      H1005   1.083       .  S
C1001      C1002   1.413       .  A
C1002      F1006   1.358       .  S
C1003      C1008   1.408       .  A
C1003      C1012   1.401       .  A
C1008      C1009   1.400       .  A
C1008      F1013   1.358       .  S
C1009      C1010   1.403       .  A
C1009      H1014   1.080       .  S
C1010      C1011   1.413       .  A
C1011      C1012   1.398       .  A
C1011      F1015   1.357       .  S
C1012      H1016   1.083       .  S
C1017      C1018   1.407   1_655  A
C1017      C1022   1.404       .  A
C1017      H1027   1.083       .  S
C1018      C1023   1.490       .  S
C1018      C1019   1.403       .  A
C1019      C1020   1.398       .  A
C1019      F1024   1.358       .  S
C1020      C1021   1.411       .  A
C1020      H1025   1.082       .  S
C1021      C1022   1.409   1_455  A
C1022      F1026   1.356       .  S
C1023      C1028   1.404       .  A
C1023      C1032   1.407       .  A
C1028      C1029   1.399       .  A
C1028      F1033   1.358       .  S
C1029      C1030   1.410       .  A
C1029      H1034   1.083       .  S
C1030      C1031   1.411       .  A
C1031      C1032   1.404       .  A
C1031      F1035   1.357   1_556  S
C1032      H1036   1.083       .  S
C1037      C1038   1.409       .  A
C1037      C1042   1.403       .  A
C1037      H1047   1.083       .  S
C1038      C1043   1.491   1_556  S
C1038      C1039   1.406   1_556  A
C1039      C1040   1.398       .  A
C1039      F1044   1.357       .  S
C1040      C1041   1.406   1_554  A
C1040      H1045   1.083       .  S
C1041      C1042   1.405       .  A
C1042      F1046   1.357       .  S
C1043      C1048   1.406   1_554  A
C1043      C1052   1.409       .  A
C1048      C1049   1.400       .  A
C1048      F1053   1.357       .  S
C1049      C1050   1.406   1_556  A
C1049      H1054   1.083       .  S
C1050      C1051   1.403       .  A
C1051      C1052   1.402       .  A
C1051      F1055   1.355       .  S
C1052      H1056   1.083       .  S
C1057      C1058   1.409       .  A
C1057      C1062   1.406       .  A
C1057      H1067   1.083       .  S
C1058      C1063   1.482       .  S
C1058      C1059   1.402       .  A
C1059      C1060   1.390       .  A
C1059      F1064   1.358   1_565  S
C1060      C1061   1.408       .  A
C1060      H1065   1.084   1_565  S
C1061      C1062   1.406       .  A
C1062      F1066   1.357       .  S
C1063      C1068   1.401       .  A
C1063      C1072   1.406       .  A
C1068      C1069   1.397       .  A
C1068      F1073   1.357       .  S
C1069      C1070   1.411       .  A
C1069      H1074   1.082       .  S
C1070      C1071   1.407       .  A
C1071      C1072   1.399       .  A
C1071      F1075   1.353   1_565  S
C1072      H1076   1.083       .  S
C1077      C1078   1.407       .  A
C1077      C1082   1.401   1_455  A
C1077      H1087   1.083   1_455  S
C1078      C1083   1.487       .  S
C1078      C1079   1.405       .  A
C1079      C1080   1.398       .  A
C1079      F1084   1.358       .  S
C1080      C1081   1.408       .  A
C1080      H1085   1.084       .  S
C1081      C1082   1.402   1_455  A
C1082      F1086   1.353       .  S
C1083      C1088   1.405       .  A
C1083      C1092   1.406       .  A
C1088      C1089   1.400       .  A
C1088      F1093   1.357   1_455  S
C1089      C1090   1.408       .  A
C1089      H1094   1.083   1_454  S
C1090      C1091   1.409       .  A
C1091      C1092   1.401       .  A
C1091      F1095   1.358       .  S
C1092      H1096   1.083       .  S
C1097      C1098   1.405       .  A
C1097      C1102   1.398       .  A
C1097      H1107   1.083       .  S
C1098      C1103   1.473       .  S
C1098      C1099   1.404       .  A
C1099      C1100   1.393       .  A
C1099      F1104   1.358       .  S
C1100      C1101   1.401       .  A
C1100      H1105   1.084       .  S
C1101      C1102   1.403       .  A
C1102      F1106   1.358       .  S
C1103      C1108   1.400       .  A
C1103      C1112   1.399       .  A
C1108      C1109   1.397       .  A
C1108      F1113   1.358       .  S
C1109      C1110   1.413       .  A
C1109      H1114   1.078       .  S
C1110      C1111   1.413       .  A
C1111      C1112   1.394       .  A
C1111      F1115   1.358       .  S
C1112      H1116   1.085       .  S
C1117      C1118   1.405   1_655  A
C1117      C1122   1.405       .  A
C1117      H1127   1.083       .  S
C1118      C1123   1.475       .  S
C1118      C1119   1.400       .  A
C1119      C1120   1.394       .  A
C1119      F1124   1.358       .  S
C1120      C1121   1.408       .  A
C1120      H1125   1.083       .  S
C1121      C1122   1.408   1_455  A
C1122      F1126   1.357       .  S
C1123      C1128   1.402       .  A
C1123      C1132   1.401       .  A
C1128      C1129   1.401       .  A
C1128      F1133   1.357       .  S
C1129      C1130   1.406       .  A
C1129      H1134   1.083       .  S
C1130      C1131   1.409       .  A
C1131      C1132   1.398       .  A
C1131      F1135   1.357       .  S
C1132      H1136   1.084       .  S
C1137      C1138   1.404       .  A
C1137      C1142   1.400       .  A
C1137      H1147   1.083       .  S
C1138      C1143   1.485       .  S
C1138      C1139   1.404       .  A
C1139      C1140   1.401       .  A
C1139      F1144   1.358       .  S
C1140      C1141   1.410       .  A
C1140      H1145   1.083       .  S
C1141      C1142   1.410       .  A
C1142      F1146   1.357       .  S
C1143      C1148   1.406       .  A
C1143      C1152   1.405       .  A
C1148      C1149   1.397   1_655  A
C1148      F1153   1.358       .  S
C1149      C1150   1.404   1_455  A
C1149      H1154   1.083       .  S
C1150      C1151   1.409       .  A
C1151      C1152   1.404       .  A
C1151      F1155   1.357       .  S
C1152      H1156   1.083       .  S
C1157      C1158   1.404       .  A
C1157      C1162   1.395       .  A
C1157      H1167   1.083       .  S
C1158      C1163   1.488       .  S
C1158      C1159   1.410   1_655  A
C1159      C1160   1.402       .  A
C1159      F1164   1.357       .  S
C1160      C1161   1.405   1_455  A
C1160      H1165   1.083       .  S
C1161      C1162   1.409       .  A
C1162      F1166   1.358       .  S
C1163      C1168   1.411       .  A
C1163      C1172   1.404   1_655  A
C1168      C1169   1.400       .  A
C1168      F1173   1.358       .  S
C1169      C1170   1.400   1_655  A
C1169      H1174   1.079       .  S
C1170      C1171   1.408       .  A
C1171      C1172   1.396       .  A
C1171      F1175   1.358       .  S
C1172      H1176   1.083       .  S
C1177      C1178   1.404       .  A
C1177      C1182   1.400       .  A
C1177      H1187   1.083       .  S
C1178      C1183   1.488       .  S
C1178      C1179   1.404       .  A
C1179      C1180   1.397       .  A
C1179      F1184   1.358       .  S
C1180      C1181   1.413       .  A
C1180      H1185   1.077       .  S
C1181      C1182   1.413       .  A
C1182      F1186   1.358       .  S
C1183      C1188   1.410       .  A
C1183      C1192   1.406       .  A
C1188      C1189   1.401       .  A
C1188      F1193   1.358       .  S
C1189      C1190   1.402       .  A
C1189      H1194   1.084       .  S
C1190      C1191   1.401       .  A
C1191      C1192   1.398       .  A
C1191      F1195   1.357       .  S
C1192      H1196   1.083       .  S
C1197      C1198   1.406       .  A
C1197      C1202   1.401       .  A
C1197      H1207   1.083       .  S
C1198      C1203   1.478       .  S
C1198      C1199   1.404       .  A
C1199      C1200   1.396       .  A
C1199      F1204   1.358       .  S
C1200      C1201   1.403       .  A
C1200      H1205   1.084       .  S
C1201      C1202   1.404       .  A
C1202      F1206   1.357       .  S
C1203      C1208   1.405       .  A
C1203      C1212   1.403       .  A
C1208      C1209   1.396       .  A
C1208      F1213   1.358       .  S
C1209      C1210   1.403       .  A
C1209      H1214   1.083       .  S
C1210      C1211   1.407       .  A
C1211      C1212   1.401       .  A
C1211      F1215   1.357       .  S
C1212      H1216   1.083       .  S
C1217      C1218   1.404       .  A
C1217      C1222   1.406       .  A
C1217      H1227   1.083       .  S
C1218      C1223   1.481       .  S
C1218      C1219   1.401       .  A
C1219      C1220   1.395       .  A
C1219      F1224   1.358       .  S
C1220      C1221   1.408       .  A
C1220      H1225   1.083       .  S
C1221      C1222   1.413       .  A
C1222      F1226   1.357       .  S
C1223      C1228   1.404       .  A
C1223      C1232   1.398       .  A
C1228      C1229   1.400       .  A
C1228      F1233   1.358       .  S
C1229      C1230   1.411       .  A
C1229      H1234   1.077       .  S
C1230      C1231   1.417       .  A
C1231      C1232   1.400       .  A
C1231      F1235   1.358       .  S
C1232      H1236   1.083       .  S
C1237      C1238   1.404       .  A
C1237      C1242   1.398       .  A
C1237      H1247   1.083       .  S
C1238      C1243   1.486       .  S
C1238      C1239   1.409       .  A
C1239      C1240   1.399       .  A
C1239      F1244   1.358       .  S
C1240      C1241   1.406       .  A
C1240      H1245   1.083       .  S
C1241      C1242   1.408       .  A
C1242      F1246   1.357       .  S
C1243      C1248   1.409       .  A
C1243      C1252   1.405       .  A
C1248      C1249   1.401       .  A
C1248      F1253   1.357       .  S
C1249      C1250   1.402       .  A
C1249      H1254   1.083       .  S
C1250      C1251   1.403       .  A
C1251      C1252   1.397       .  A
C1251      F1255   1.358       .  S
C1252      H1256   1.083       .  S
C1257      C1258   1.403       .  A
C1257      C1262   1.398       .  A
C1257      H1267   1.083       .  S
C1258      C1263   1.489       .  S
C1258      C1259   1.412       .  A
C1259      C1260   1.402       .  A
C1259      F1264   1.358       .  S
C1260      C1261   1.402       .  A
C1260      H1265   1.083       .  S
C1261      C1262   1.408       .  A
C1262      F1266   1.358   1_556  S
C1263      C1268   1.413       .  A
C1263      C1272   1.403       .  A
C1268      C1269   1.403       .  A
C1268      F1273   1.357       .  S
C1269      C1270   1.400       .  A
C1269      H1274   1.083       .  S
C1270      C1271   1.407       .  A
C1271      C1272   1.396       .  A
C1271      F1275   1.358       .  S
C1272      H1276   1.083       .  S
C1277      C1278   1.408       .  A
C1277      C1282   1.399       .  A
C1277      H1287   1.083       .  S
C1278      C1283   1.489       .  S
C1278      C1279   1.408       .  A
C1279      C1280   1.400       .  A
C1279      F1284   1.357       .  S
C1280      C1281   1.405       .  A
C1280      H1285   1.083       .  S
C1281      C1282   1.403       .  A
C1282      F1286   1.357       .  S
C1283      C1288   1.407       .  A
C1283      C1292   1.406       .  A
C1288      C1289   1.397       .  A
C1288      F1293   1.358       .  S
C1289      C1290   1.406       .  A
C1289      H1294   1.083       .  S
C1290      C1291   1.411       .  A
C1291      C1292   1.402       .  A
C1291      F1295   1.357       .  S
C1292      H1296   1.083       .  S
C1297      C1298   1.400   1_545  A
C1297      C1302   1.394       .  A
C1297      H1307   1.084       .  S
C1298      C1303   1.473       .  S
C1298      C1299   1.400       .  A
C1299      C1300   1.398       .  A
C1299      F1304   1.358       .  S
C1300      C1301   1.413       .  A
C1300      H1305   1.076       .  S
C1301      C1302   1.413   1_565  A
C1302      F1306   1.358       .  S
C1303      C1308   1.397   1_565  A
C1303      C1312   1.407       .  A
C1308      C1309   1.386       .  A
C1308      F1313   1.359       .  S
C1309      C1310   1.411   1_545  A
C1309      H1314   1.083       .  S
C1310      C1311   1.408       .  A
C1311      C1312   1.406       .  A
C1311      F1315   1.357       .  S
C1312      H1316   1.083       .  S
C1317      C1318   1.404       .  A
C1317      C1322   1.398       .  A
C1317      H1327   1.083       .  S
C1318      C1323   1.478       .  S
C1318      C1319   1.403       .  A
C1319      C1320   1.396       .  A
C1319      F1324   1.357       .  S
C1320      C1321   1.407       .  A
C1320      H1325   1.083       .  S
C1321      C1322   1.409       .  A
C1322      F1326   1.358       .  S
C1323      C1328   1.402       .  A
C1323      C1332   1.407   1_545  A
C1328      C1329   1.393       .  A
C1328      F1333   1.358       .  S
C1329      C1330   1.408   1_545  A
C1329      H1334   1.083       .  S
C1330      C1331   1.403       .  A
C1331      C1332   1.401       .  A
C1331      F1335   1.356       .  S
C1332      H1336   1.083       .  S
C1337      C1338   1.406       .  A
C1337      C1342   1.403       .  A
C1337      H1347   1.083       .  S
C1338      C1343   1.492       .  S
C1338      C1339   1.407       .  A
C1339      C1340   1.399       .  A
C1339      F1344   1.357       .  S
C1340      C1341   1.408       .  A
C1340      H1345   1.083       .  S
C1341      C1342   1.412       .  A
C1342      F1346   1.357       .  S
C1343      C1348   1.408       .  A
C1343      C1352   1.406       .  A
C1348      C1349   1.403       .  A
C1348      F1353   1.357       .  S
C1349      C1350   1.406       .  A
C1349      H1354   1.083       .  S
C1350      C1351   1.408       .  A
C1351      C1352   1.399       .  A
C1351      F1355   1.357       .  S
C1352      H1356   1.083       .  S
C1357      C1358   1.404       .  A
C1357      C1362   1.400       .  A
C1357      H1367   1.084       .  S
C1358      C1363   1.490       .  S
C1358      C1359   1.404       .  A
C1359      C1360   1.398       .  A
C1359      F1364   1.358       .  S
C1360      C1361   1.414       .  A
C1360      H1365   1.079       .  S
C1361      C1362   1.412       .  A
C1362      F1366   1.358       .  S
C1363      C1368   1.407       .  A
C1363      C1372   1.405       .  A
C1368      C1369   1.399       .  A
C1368      F1373   1.357       .  S
C1369      C1370   1.407       .  A
C1369      H1374   1.083       .  S
C1370      C1371   1.411       .  A
C1371      C1372   1.400       .  A
C1371      F1375   1.357       .  S
C1372      H1376   1.083       .  S
C1377      C1378   1.409       .  A
C1377      C1382   1.407       .  A
C1377      H1387   1.083       .  S
C1378      C1383   1.484       .  S
C1378      C1379   1.402       .  A
C1379      C1380   1.391       .  A
C1379      F1384   1.358       .  S
C1380      C1381   1.410       .  A
C1380      H1385   1.083       .  S
C1381      C1382   1.408       .  A
C1382      F1386   1.357       .  S
C1383      C1388   1.401       .  A
C1383      C1392   1.407       .  A
C1388      C1389   1.396       .  A
C1388      F1393   1.357       .  S
C1389      C1390   1.412       .  A
C1389      H1394   1.082       .  S
C1390      C1391   1.407       .  A
C1391      C1392   1.401       .  A
C1391      F1395   1.353       .  S
C1392      H1396   1.083       .  S
C1397      C1398   1.408       .  A
C1397      C1402   1.404       .  A
C1397      H1407   1.083       .  S
C1398      C1403   1.484       .  S
C1398      C1399   1.403       .  A
C1399      C1400   1.392       .  A
C1399      F1404   1.358       .  S
C1400      C1401   1.408       .  A
C1400      H1405   1.083       .  S
C1401      C1402   1.407       .  A
C1402      F1406   1.357       .  S
C1403      C1408   1.403       .  A
C1403      C1412   1.406       .  A
C1408      C1409   1.398       .  A
C1408      F1413   1.358       .  S
C1409      C1410   1.411       .  A
C1409      H1414   1.082       .  S
C1410      C1411   1.407       .  A
C1411      C1412   1.398       .  A
C1411      F1415   1.356       .  S
C1412      H1416   1.083       .  S
C1417      C1418   1.404       .  A
C1417      C1422   1.399       .  A
C1417      H1427   1.083       .  S
C1418      C1423   1.485       .  S
C1418      C1419   1.404       .  A
C1419      C1420   1.395       .  A
C1419      F1424   1.358       .  S
C1420      C1421   1.410       .  A
C1420      H1425   1.080       .  S
C1421      C1422   1.413       .  A
C1422      F1426   1.357       .  S
C1423      C1428   1.406       .  A
C1423      C1432   1.404       .  A
C1428      C1429   1.401       .  A
C1428      F1433   1.358       .  S
C1429      C1430   1.409       .  A
C1429      H1434   1.083   1_655  S
C1430      C1431   1.409       .  A
C1431      C1432   1.395       .  A
C1431      F1435   1.357       .  S
C1432      H1436   1.083       .  S
C1437      C1438   1.406       .  A
C1437      C1442   1.400       .  A
C1437      H1447   1.083       .  S
C1438      C1443   1.492       .  S
C1438      C1439   1.410       .  A
C1439      C1440   1.397       .  A
C1439      F1444   1.358       .  S
C1440      C1441   1.405       .  A
C1440      H1445   1.083       .  S
C1441      C1442   1.407       .  A
C1442      F1446   1.357       .  S
C1443      C1448   1.412       .  A
C1443      C1452   1.407       .  A
C1448      C1449   1.400       .  A
C1448      F1453   1.357       .  S
C1449      C1450   1.400       .  A
C1449      H1454   1.084       .  S
C1450      C1451   1.404       .  A
C1451      C1452   1.398       .  A
C1451      F1455   1.358       .  S
C1452      H1456   1.083       .  S
C1457      C1458   1.405       .  A
C1457      C1462   1.402       .  A
C1457      H1467   1.083       .  S
C1458      C1463   1.482       .  S
C1458      C1459   1.403       .  A
C1459      C1460   1.397       .  A
C1459      F1464   1.357       .  S
C1460      C1461   1.408       .  A
C1460      H1465   1.083       .  S
C1461      C1462   1.410       .  A
C1462      F1466   1.357       .  S
C1463      C1468   1.409       .  A
C1463      C1472   1.401       .  A
C1468      C1469   1.402       .  A
C1468      F1473   1.357       .  S
C1469      C1470   1.401       .  A
C1469      H1474   1.082       .  S
C1470      C1471   1.409       .  A
C1471      C1472   1.397       .  A
C1471      F1475   1.358       .  S
C1472      H1476   1.083       .  S
C1477      C1478   1.407       .  A
C1477      C1482   1.402       .  A
C1477      H1487   1.083       .  S
C1478      C1483   1.490       .  S
C1478      C1479   1.407       .  A
C1479      C1480   1.402       .  A
C1479      F1484   1.357       .  S
C1480      C1481   1.406       .  A
C1480      H1485   1.083       .  S
C1481      C1482   1.407       .  A
C1482      F1486   1.357       .  S
C1483      C1488   1.406       .  A
C1483      C1492   1.405       .  A
C1488      C1489   1.400       .  A
C1488      F1493   1.357       .  S
C1489      C1490   1.409       .  A
C1489      H1494   1.083       .  S
C1490      C1491   1.412       .  A
C1491      C1492   1.402       .  A
C1491      F1495   1.357       .  S
C1492      H1496   1.083       .  S
C1497      C1498   1.405       .  A
C1497      C1502   1.402       .  A
C1497      H1507   1.083       .  S
C1498      C1503   1.486       .  S
C1498      C1499   1.406       .  A
C1499      C1500   1.404       .  A
C1499      F1504   1.357       .  S
C1500      C1501   1.407       .  A
C1500      H1505   1.083       .  S
C1501      C1502   1.404       .  A
C1502      F1506   1.356       .  S
C1503      C1508   1.404       .  A
C1503      C1512   1.403       .  A
C1508      C1509   1.405       .  A
C1508      F1513   1.357       .  S
C1509      C1510   1.412       .  A
C1509      H1514   1.083   1_565  S
C1510      C1511   1.412       .  A
C1511      C1512   1.401       .  A
C1511      F1515   1.357       .  S
C1512      H1516   1.083       .  S
C1517      C1518   1.402       .  A
C1517      C1522   1.399       .  A
C1517      H1527   1.083       .  S
C1518      C1523   1.484       .  S
C1518      C1519   1.407       .  A
C1519      C1520   1.401       .  A
C1519      F1524   1.357       .  S
C1520      C1521   1.405       .  A
C1520      H1525   1.083       .  S
C1521      C1522   1.412       .  A
C1522      F1526   1.358       .  S
C1523      C1528   1.407       .  A
C1523      C1532   1.399       .  A
C1528      C1529   1.402       .  A
C1528      F1533   1.357       .  S
C1529      C1530   1.410       .  A
C1529      H1534   1.078       .  S
C1530      C1531   1.416       .  A
C1531      C1532   1.397       .  A
C1531      F1535   1.358       .  S
C1532      H1536   1.083       .  S
C1537      C1538   1.404       .  A
C1537      C1542   1.398       .  A
C1537      H1547   1.083       .  S
C1538      C1543   1.486       .  S
C1538      C1539   1.407       .  A
C1539      C1540   1.402       .  A
C1539      F1544   1.357       .  S
C1540      C1541   1.407       .  A
C1540      H1545   1.083       .  S
C1541      C1542   1.409       .  A
C1542      F1546   1.357       .  S
C1543      C1548   1.408       .  A
C1543      C1552   1.406       .  A
C1548      C1549   1.400       .  A
C1548      F1553   1.358       .  S
C1549      C1550   1.402       .  A
C1549      H1554   1.083       .  S
C1550      C1551   1.404       .  A
C1551      C1552   1.401       .  A
C1551      F1555   1.357       .  S
C1552      H1556   1.083       .  S
C1557      C1558   1.405       .  A
C1557      C1562   1.401       .  A
C1557      H1567   1.083       .  S
C1558      C1563   1.493       .  S
C1558      C1559   1.408       .  A
C1559      C1560   1.402       .  A
C1559      F1564   1.357       .  S
C1560      C1561   1.408       .  A
C1560      H1565   1.083       .  S
C1561      C1562   1.412       .  A
C1562      F1566   1.357       .  S
C1563      C1568   1.409       .  A
C1563      C1572   1.407       .  A
C1568      C1569   1.402       .  A
C1568      F1573   1.357       .  S
C1569      C1570   1.405       .  A
C1569      H1574   1.083       .  S
C1570      C1571   1.406       .  A
C1571      C1572   1.402       .  A
C1571      F1575   1.357       .  S
C1572      H1576   1.083       .  S
C1577      C1578   1.404       .  A
C1577      C1582   1.394       .  A
C1577      H1587   1.083       .  S
C1578      C1583   1.487       .  S
C1578      C1579   1.405       .  A
C1579      C1580   1.399       .  A
C1579      F1584   1.357       .  S
C1580      C1581   1.412       .  A
C1580      H1585   1.081       .  S
C1581      C1582   1.413       .  A
C1582      F1586   1.357       .  S
C1583      C1588   1.407       .  A
C1583      C1592   1.410       .  A
C1588      C1589   1.390       .  A
C1588      F1593   1.358       .  S
C1589      C1590   1.402       .  A
C1589      H1594   1.084       .  S
C1590      C1591   1.404       .  A
C1591      C1592   1.404       .  A
C1591      F1595   1.357       .  S
C1592      H1596   1.083       .  S
C1597      C1598   1.411       .  A
C1597      C1602   1.402       .  A
C1597      H1607   1.083       .  S
C1598      C1603   1.491       .  S
C1598      C1599   1.407   1_655  A
C1599      C1600   1.397       .  A
C1599      F1604   1.357       .  S
C1600      C1601   1.404   1_455  A
C1600      H1605   1.084       .  S
C1601      C1602   1.401       .  A
C1602      F1606   1.357       .  S
C1603      C1608   1.406       .  A
C1603      C1612   1.410   1_655  A
C1608      C1609   1.397       .  A
C1608      F1613   1.357       .  S
C1609      C1610   1.407       .  A
C1609      H1614   1.083       .  S
C1610      C1611   1.405   1_655  A
C1611      C1612   1.402       .  A
C1611      F1615   1.357       .  S
C1612      H1616   1.083       .  S
C1617      C1618   1.404       .  A
C1617      C1622   1.401       .  A
C1617      H1627   1.083       .  S
C1618      C1623   1.487       .  S
C1618      C1619   1.407   1_655  A
C1619      C1620   1.398       .  A
C1619      F1624   1.358       .  S
C1620      C1621   1.407       .  A
C1620      H1625   1.083       .  S
C1621      C1622   1.410   1_455  A
C1622      F1626   1.357       .  S
C1623      C1628   1.407       .  A
C1623      C1632   1.404       .  A
C1628      C1629   1.399       .  A
C1628      F1633   1.358       .  S
C1629      C1630   1.408       .  A
C1629      H1634   1.083       .  S
C1630      C1631   1.410       .  A
C1631      C1632   1.401       .  A
C1631      F1635   1.357       .  S
C1632      H1636   1.083       .  S
C1637      C1638   1.401       .  A
C1637      C1642   1.399       .  A
C1637      H1647   1.083       .  S
C1638      C1643   1.490       .  S
C1638      C1639   1.407       .  A
C1639      C1640   1.404       .  A
C1639      F1644   1.358       .  S
C1640      C1641   1.412       .  A
C1640      H1645   1.080       .  S
C1641      C1642   1.416       .  A
C1642      F1646   1.357       .  S
C1643      C1648   1.406       .  A
C1643      C1652   1.405       .  A
C1648      C1649   1.401       .  A
C1648      F1653   1.357       .  S
C1649      C1650   1.409       .  A
C1649      H1654   1.083       .  S
C1650      C1651   1.412       .  A
C1651      C1652   1.403       .  A
C1651      F1655   1.357       .  S
C1652      H1656   1.083       .  S
C1657      C1658   1.399       .  A
C1657      C1662   1.397       .  A
C1657      H1667   1.083       .  S
C1658      C1663   1.484       .  S
C1658      C1659   1.410       .  A
C1659      C1660   1.403       .  A
C1659      F1664   1.357       .  S
C1660      C1661   1.403       .  A
C1660      H1665   1.083       .  S
C1661      C1662   1.414       .  A
C1662      F1666   1.358       .  S
C1663      C1668   1.408       .  A
C1663      C1672   1.401       .  A
C1668      C1669   1.404       .  A
C1668      F1673   1.357       .  S
C1669      C1670   1.405       .  A
C1669      H1674   1.083       .  S
C1670      C1671   1.410       .  A
C1671      C1672   1.394       .  A
C1671      F1675   1.358       .  S
C1672      H1676   1.084       .  S
C1677      C1678   1.404       .  A
C1677      C1682   1.401       .  A
C1677      H1687   1.083       .  S
C1678      C1683   1.488       .  S
C1678      C1679   1.408       .  A
C1679      C1680   1.402       .  A
C1679      F1684   1.357       .  S
C1680      C1681   1.405       .  A
C1680      H1685   1.083       .  S
C1681      C1682   1.410       .  A
C1682      F1686   1.357       .  S
C1683      C1688   1.409       .  A
C1683      C1692   1.404       .  A
C1688      C1689   1.406       .  A
C1688      F1693   1.357       .  S
C1689      C1690   1.405       .  A
C1689      H1694   1.083   1_545  S
C1690      C1691   1.404       .  A
C1691      C1692   1.398       .  A
C1691      F1695   1.357       .  S
C1692      H1696   1.083       .  S
C1697      C1698   1.400       .  A
C1697      C1702   1.393       .  A
C1697      H1707   1.083       .  S
C1698      C1703   1.489       .  S
C1698      C1699   1.411       .  A
C1699      C1700   1.407       .  A
C1699      F1704   1.357       .  S
C1700      C1701   1.407       .  A
C1700      H1705   1.083       .  S
C1701      C1702   1.413       .  A
C1702      F1706   1.358       .  S
C1703      C1708   1.404       .  A
C1703      C1712   1.404       .  A
C1708      C1709   1.400       .  A
C1708      F1713   1.358       .  S
C1709      C1710   1.414       .  A
C1709      H1714   1.082       .  S
C1710      C1711   1.413       .  A
C1711      C1712   1.400       .  A
C1711      F1715   1.358       .  S
C1712      H1716   1.086       .  S
C1717      C1718   1.401       .  A
C1717      C1722   1.399       .  A
C1717      H1727   1.083       .  S
C1718      C1723   1.484       .  S
C1718      C1719   1.409       .  A
C1719      C1720   1.398       .  A
C1719      F1724   1.358       .  S
C1720      C1721   1.403       .  A
C1720      H1725   1.083       .  S
C1721      C1722   1.413       .  A
C1722      F1726   1.357       .  S
C1723      C1728   1.403       .  A
C1723      C1732   1.408       .  A
C1728      C1729   1.391       .  A
C1728      F1733   1.358       .  S
C1729      C1730   1.408       .  A
C1729      H1734   1.083       .  S
C1730      C1731   1.407       .  A
C1731      C1732   1.406       .  A
C1731      F1735   1.357       .  S
C1732      H1736   1.083       .  S
C1737      C1738   1.404       .  A
C1737      C1742   1.403       .  A
C1737      H1747   1.083       .  S
C1738      C1743   1.485       .  S
C1738      C1739   1.407       .  A
C1739      C1740   1.395       .  A
C1739      F1744   1.358       .  S
C1740      C1741   1.405       .  A
C1740      H1745   1.083       .  S
C1741      C1742   1.411       .  A
C1742      F1746   1.357   1_455  S
C1743      C1748   1.408       .  A
C1743      C1752   1.405       .  A
C1748      C1749   1.403       .  A
C1748      F1753   1.357       .  S
C1749      C1750   1.403       .  A
C1749      H1754   1.083       .  S
C1750      C1751   1.404       .  A
C1751      C1752   1.395       .  A
C1751      F1755   1.358       .  S
C1752      H1756   1.083       .  S
C1757      C1758   1.407       .  A
C1757      C1762   1.405       .  A
C1757      H1767   1.083       .  S
C1758      C1763   1.489       .  S
C1758      C1759   1.406       .  A
C1759      C1760   1.399       .  A
C1759      F1764   1.358       .  S
C1760      C1761   1.406       .  A
C1760      H1765   1.083       .  S
C1761      C1762   1.407       .  A
C1762      F1766   1.357       .  S
C1763      C1768   1.407       .  A
C1763      C1772   1.408       .  A
C1768      C1769   1.397       .  A
C1768      F1773   1.358       .  S
C1769      C1770   1.403       .  A
C1769      H1774   1.084       .  S
C1770      C1771   1.405       .  A
C1771      C1772   1.406       .  A
C1771      F1775   1.357   1_455  S
C1772      H1776   1.083       .  S
C1777      C1778   1.400       .  A
C1777      C1782   1.400       .  A
C1777      H1787   1.083       .  S
C1778      C1783   1.484       .  S
C1778      C1779   1.406       .  A
C1779      C1780   1.399       .  A
C1779      F1784   1.358       .  S
C1780      C1781   1.410       .  A
C1780      H1785   1.077       .  S
C1781      C1782   1.416       .  A
C1782      F1786   1.358       .  S
C1783      C1788   1.404       .  A
C1783      C1792   1.408       .  A
C1788      C1789   1.394       .  A
C1788      F1793   1.358       .  S
C1789      C1790   1.406       .  A
C1789      H1794   1.084       .  S
C1790      C1791   1.406       .  A
C1791      C1792   1.406       .  A
C1791      F1795   1.357       .  S
C1792      H1796   1.083       .  S
C1797      C1798   1.406       .  A
C1797      C1802   1.405       .  A
C1797      H1807   1.083       .  S
C1798      C1803   1.479       .  S
C1798      C1799   1.402   1_554  A
C1799      C1800   1.395       .  A
C1799      F1804   1.358       .  S
C1800      C1801   1.405       .  A
C1800      H1805   1.084       .  S
C1801      C1802   1.408   1_556  A
C1802      F1806   1.357       .  S
C1803      C1808   1.405       .  A
C1803      C1812   1.404   1_554  A
C1808      C1809   1.399   1_554  A
C1808      F1813   1.358       .  S
C1809      C1810   1.404       .  A
C1809      H1814   1.083       .  S
C1810      C1811   1.404       .  A
C1811      C1812   1.401       .  A
C1811      F1815   1.356       .  S
C1812      H1816   1.083       .  S
C1817      C1818   1.403       .  A
C1817      C1822   1.404       .  A
C1817      H1827   1.083       .  S
C1818      C1823   1.489       .  S
C1818      C1819   1.407       .  A
C1819      C1820   1.402       .  A
C1819      F1824   1.358       .  S
C1820      C1821   1.408       .  A
C1820      H1825   1.083       .  S
C1821      C1822   1.415       .  A
C1822      F1826   1.357       .  S
C1823      C1828   1.408       .  A
C1823      C1832   1.406       .  A
C1828      C1829   1.404       .  A
C1828      F1833   1.357       .  S
C1829      C1830   1.404       .  A
C1829      H1834   1.083       .  S
C1830      C1831   1.403       .  A
C1831      C1832   1.401       .  A
C1831      F1835   1.357   1_556  S
C1832      H1836   1.083   1_556  S
C1837      C1838   1.401       .  A
C1837      C1842   1.399       .  A
C1837      H1847   1.083       .  S
C1838      C1843   1.483       .  S
C1838      C1839   1.406       .  A
C1839      C1840   1.402       .  A
C1839      F1844   1.357       .  S
C1840      C1841   1.407       .  A
C1840      H1845   1.082       .  S
C1841      C1842   1.412       .  A
C1842      F1846   1.357       .  S
C1843      C1848   1.403       .  A
C1843      C1852   1.406       .  A
C1848      C1849   1.397       .  A
C1848      F1853   1.358       .  S
C1849      C1850   1.407       .  A
C1849      H1854   1.083       .  S
C1850      C1851   1.409       .  A
C1851      C1852   1.404       .  A
C1851      F1855   1.357       .  S
C1852      H1856   1.083       .  S
C1857      C1858   1.409       .  A
C1857      C1862   1.402       .  A
C1857      H1867   1.083       .  S
C1858      C1863   1.489       .  S
C1858      C1859   1.406       .  A
C1859      C1860   1.400       .  A
C1859      F1864   1.357       .  S
C1860      C1861   1.405       .  A
C1860      H1865   1.083       .  S
C1861      C1862   1.402       .  A
C1862      F1866   1.357       .  S
C1863      C1868   1.404       .  A
C1863      C1872   1.410       .  A
C1868      C1869   1.396       .  A
C1868      F1873   1.358       .  S
C1869      C1870   1.407       .  A
C1869      H1874   1.084       .  S
C1870      C1871   1.404       .  A
C1871      C1872   1.405       .  A
C1871      F1875   1.357       .  S
C1872      H1876   1.083       .  S
C1877      C1878   1.407       .  A
C1877      C1882   1.402       .  A
C1877      H1887   1.083   1_556  S
C1878      C1883   1.495       .  S
C1878      C1879   1.410       .  A
C1879      C1880   1.401       .  A
C1879      F1884   1.357       .  S
C1880      C1881   1.405       .  A
C1880      H1885   1.083       .  S
C1881      C1882   1.409       .  A
C1882      F1886   1.357   1_556  S
C1883      C1888   1.411       .  A
C1883      C1892   1.405       .  A
C1888      C1889   1.405       .  A
C1888      F1893   1.357       .  S
C1889      C1890   1.405       .  A
C1889      H1894   1.083       .  S
C1890      C1891   1.410       .  A
C1891      C1892   1.399       .  A
C1891      F1895   1.358       .  S
C1892      H1896   1.083       .  S
C1897      C1898   1.401   1_554  A
C1897      C1902   1.403       .  A
C1897      H1907   1.083       .  S
C1898      C1903   1.489       .  S
C1898      C1899   1.406       .  A
C1899      C1900   1.399       .  A
C1899      F1904   1.358       .  S
C1900      C1901   1.410       .  A
C1900      H1905   1.076       .  S
C1901      C1902   1.416   1_556  A
C1902      F1906   1.358       .  S
C1903      C1908   1.406       .  A
C1903      C1912   1.408   1_556  A
C1908      C1909   1.394       .  A
C1908      F1913   1.358       .  S
C1909      C1910   1.403       .  A
C1909      H1914   1.084       .  S
C1910      C1911   1.407   1_556  A
C1911      C1912   1.408       .  A
C1911      F1915   1.357       .  S
C1912      H1916   1.083       .  S
C1917      C1918   1.404       .  A
C1917      C1922   1.404       .  A
C1917      H1927   1.083       .  S
C1918      C1923   1.489       .  S
C1918      C1919   1.407       .  A
C1919      C1920   1.398       .  A
C1919      F1924   1.358       .  S
C1920      C1921   1.406       .  A
C1920      H1925   1.083       .  S
C1921      C1922   1.413       .  A
C1922      F1926   1.357       .  S
C1923      C1928   1.409       .  A
C1923      C1932   1.407       .  A
C1928      C1929   1.398       .  A
C1928      F1933   1.357       .  S
C1929      C1930   1.400       .  A
C1929      H1934   1.083       .  S
C1930      C1931   1.404       .  A
C1931      C1932   1.403       .  A
C1931      F1935   1.358       .  S
C1932      H1936   1.083       .  S
C1937      C1938   1.403       .  A
C1937      C1942   1.398       .  A
C1937      H1947   1.083       .  S
C1938      C1943   1.480       .  S
C1938      C1939   1.406       .  A
C1939      C1940   1.397       .  A
C1939      F1944   1.358       .  S
C1940      C1941   1.405       .  A
C1940      H1945   1.083       .  S
C1941      C1942   1.408       .  A
C1942      F1946   1.357       .  S
C1943      C1948   1.405       .  A
C1943      C1952   1.403       .  A
C1948      C1949   1.397       .  A
C1948      F1953   1.358       .  S
C1949      C1950   1.407       .  A
C1949      H1954   1.083       .  S
C1950      C1951   1.412       .  A
C1951      C1952   1.399       .  A
C1951      F1955   1.357       .  S
C1952      H1956   1.083       .  S
C1957      C1958   1.400       .  A
C1957      C1962   1.394       .  A
C1957      H1967   1.084       .  S
C1958      C1963   1.479       .  S
C1958      C1959   1.402       .  A
C1959      C1960   1.401       .  A
C1959      F1964   1.358       .  S
C1960      C1961   1.414       .  A
C1960      H1965   1.077       .  S
C1961      C1962   1.412       .  A
C1962      F1966   1.358       .  S
C1963      C1968   1.401       .  A
C1963      C1972   1.405   1_545  A
C1968      C1969   1.391       .  A
C1968      F1973   1.358       .  S
C1969      C1970   1.409       .  A
C1969      H1974   1.083       .  S
C1970      C1971   1.410   1_545  A
C1971      C1972   1.404       .  A
C1971      F1975   1.357       .  S
C1972      H1976   1.083       .  S
C1977      C1978   1.402       .  A
C1977      C1982   1.396       .  A
C1977      H1987   1.083       .  S
C1978      C1983   1.479       .  S
C1978      C1979   1.406       .  A
C1979      C1980   1.397       .  A
C1979      F1984   1.357       .  S
C1980      C1981   1.405       .  A
C1980      H1985   1.083       .  S
C1981      C1982   1.410       .  A
C1982      F1986   1.358       .  S
C1983      C1988   1.404       .  A
C1983      C1992   1.406       .  A
C1988      C1989   1.396       .  A
C1988      F1993   1.358       .  S
C1989      C1990   1.406       .  A
C1989      H1994   1.083       .  S
C1990      C1991   1.404   1_545  A
C1991      C1992   1.399   1_565  A
C1991      F1995   1.357       .  S
C1992      H1996   1.083   1_545  S
C1997      C1998   1.407       .  A
C1997      C2002   1.405       .  A
C1997      H2007   1.083       .  S
C1998      C2003   1.482       .  S
C1998      C1999   1.404       .  A
C1999      C2000   1.394       .  A
C1999      F2004   1.358       .  S
C2000      C2001   1.403       .  A
C2000      H2005   1.084       .  S
C2001      C2002   1.406       .  A
C2002      F2006   1.357       .  S
C2003      C2008   1.404       .  A
C2003      C2012   1.401       .  A
C2008      C2009   1.395       .  A
C2008      F2013   1.358       .  S
C2009      C2010   1.410       .  A
C2009      H2014   1.076       .  S
C2010      C2011   1.416       .  A
C2011      C2012   1.402       .  A
C2011      F2015   1.358       .  S
C2012      H2016   1.083       .  S
C2017      C2018   1.409       .  A
C2017      C2022   1.406       .  A
C2017      H2027   1.083       .  S
C2018      C2023   1.490       .  S
C2018      C2019   1.407       .  A
C2019      C2020   1.395       .  A
C2019      F2024   1.358       .  S
C2020      C2021   1.405       .  A
C2020      H2025   1.083       .  S
C2021      C2022   1.405       .  A
C2022      F2026   1.357       .  S
C2023      C2028   1.408       .  A
C2023      C2032   1.405       .  A
C2028      C2029   1.402       .  A
C2028      F2033   1.357       .  S
C2029      C2030   1.408       .  A
C2029      H2034   1.083   1_554  S
C2030      C2031   1.411       .  A
C2031      C2032   1.399       .  A
C2031      F2035   1.358       .  S
C2032      H2036   1.083       .  S
C2037      C2038   1.407       .  A
C2037      C2042   1.404       .  A
C2037      H2047   1.083       .  S
C2038      C2043   1.484       .  S
C2038      C2039   1.403       .  A
C2039      C2040   1.399       .  A
C2039      F2044   1.357       .  S
C2040      C2041   1.407       .  A
C2040      H2045   1.083       .  S
C2041      C2042   1.405       .  A
C2042      F2046   1.357       .  S
C2043      C2048   1.404       .  A
C2043      C2052   1.404       .  A
C2048      C2049   1.399       .  A
C2048      F2053   1.358       .  S
C2049      C2050   1.407       .  A
C2049      H2054   1.083       .  S
C2050      C2051   1.411       .  A
C2051      C2052   1.405       .  A
C2051      F2055   1.357   1_554  S
C2052      H2056   1.083       .  S
C2057      C2058   1.401   1_556  A
C2057      C2062   1.402       .  A
C2057      H2067   1.083       .  S
C2058      C2063   1.487   1_554  S
C2058      C2059   1.404       .  A
C2059      C2060   1.401       .  A
C2059      F2064   1.358       .  S
C2060      C2061   1.412       .  A
C2060      H2065   1.077       .  S
C2061      C2062   1.416   1_554  A
C2062      F2066   1.358       .  S
C2063      C2068   1.405   1_556  A
C2063      C2072   1.404       .  A
C2068      C2069   1.402       .  A
C2068      F2073   1.358       .  S
C2069      C2070   1.409   1_554  A
C2069      H2074   1.083   1_565  S
C2070      C2071   1.411       .  A
C2071      C2072   1.403       .  A
C2071      F2075   1.357       .  S
C2072      H2076   1.083       .  S
C2077      C2078   1.407       .  A
C2077      C2082   1.405   1_554  A
C2077      H2087   1.083   1_554  S
C2078      C2083   1.490       .  S
C2078      C2079   1.405       .  A
C2079      C2080   1.399       .  A
C2079      F2084   1.357       .  S
C2080      C2081   1.408       .  A
C2080      H2085   1.083       .  S
C2081      C2082   1.409   1_554  A
C2082      F2086   1.357       .  S
C2083      C2088   1.406       .  A
C2083      C2092   1.404       .  A
C2088      C2089   1.403       .  A
C2088      F2093   1.357       .  S
C2089      C2090   1.410       .  A
C2089      H2094   1.083       .  S
C2090      C2091   1.412       .  A
C2091      C2092   1.401       .  A
C2091      F2095   1.357       .  S
C2092      H2096   1.083       .  S
C2097      C2098   1.406       .  A
C2097      C2102   1.399       .  A
C2097      H2107   1.083       .  S
C2098      C2103   1.492       .  S
C2098      C2099   1.409       .  A
C2099      C2100   1.404       .  A
C2099      F2104   1.357       .  S
C2100      C2101   1.405       .  A
C2100      H2105   1.083       .  S
C2101      C2102   1.408       .  A
C2102      F2106   1.358       .  S
C2103      C2108   1.408       .  A
C2103      C2112   1.405       .  A
C2108      C2109   1.401       .  A
C2108      F2113   1.358       .  S
C2109      C2110   1.409       .  A
C2109      H2114   1.083       .  S
C2110      C2111   1.411       .  A
C2111      C2112   1.402       .  A
C2111      F2115   1.357       .  S
C2112      H2116   1.083       .  S
C2117      C2118   1.402       .  A
C2117      C2122   1.396       .  A
C2117      H2127   1.084       .  S
C2118      C2123   1.481       .  S
C2118      C2119   1.405       .  A
C2119      C2120   1.402       .  A
C2119      F2124   1.357       .  S
C2120      C2121   1.409       .  A
C2120      H2125   1.083       .  S
C2121      C2122   1.411       .  A
C2122      F2126   1.358       .  S
C2123      C2128   1.408       .  A
C2123      C2132   1.402       .  A
C2128      C2129   1.400       .  A
C2128      F2133   1.357       .  S
C2129      C2130   1.401       .  A
C2129      H2134   1.082       .  S
C2130      C2131   1.406       .  A
C2131      C2132   1.398       .  A
C2131      F2135   1.358       .  S
C2132      H2136   1.083       .  S
C2137      C2138   1.405       .  A
C2137      C2142   1.396       .  A
C2137      H2147   1.083       .  S
C2138      C2143   1.485       .  S
C2138      C2139   1.408       .  A
C2139      C2140   1.402       .  A
C2139      F2144   1.357       .  S
C2140      C2141   1.404       .  A
C2140      H2145   1.083       .  S
C2141      C2142   1.406       .  A
C2142      F2146   1.358       .  S
C2143      C2148   1.409       .  A
C2143      C2152   1.400       .  A
C2148      C2149   1.406       .  A
C2148      F2153   1.357       .  S
C2149      C2150   1.407       .  A
C2149      H2154   1.083       .  S
C2150      C2151   1.413       .  A
C2151      C2152   1.392       .  A
C2151      F2155   1.358       .  S
C2152      H2156   1.084       .  S
C2157      C2158   1.402       .  A
C2157      C2162   1.397       .  A
C2157      H2167   1.083       .  S
C2158      C2163   1.492       .  S
C2158      C2159   1.412       .  A
C2159      C2160   1.406       .  A
C2159      F2164   1.357       .  S
C2160      C2161   1.404       .  A
C2160      H2165   1.083       .  S
C2161      C2162   1.411       .  A
C2162      F2166   1.358       .  S
C2163      C2168   1.413       .  A
C2163      C2172   1.405       .  A
C2168      C2169   1.401       .  A
C2168      F2173   1.357       .  S
C2169      C2170   1.399       .  A
C2169      H2174   1.083       .  S
C2170      C2171   1.407       .  A
C2171      C2172   1.401       .  A
C2171      F2175   1.358       .  S
C2172      H2176   1.083       .  S
C2177      C2178   1.407       .  A
C2177      C2182   1.401       .  A
C2177      H2187   1.083       .  S
C2178      C2183   1.497       .  S
C2178      C2179   1.411       .  A
C2179      C2180   1.403       .  A
C2179      F2184   1.357       .  S
C2180      C2181   1.404       .  A
C2180      H2185   1.083       .  S
C2181      C2182   1.408       .  A
C2182      F2186   1.357       .  S
C2183      C2188   1.409       .  A
C2183      C2192   1.408       .  A
C2188      C2189   1.402       .  A
C2188      F2193   1.357       .  S
C2189      C2190   1.408       .  A
C2189      H2194   1.083       .  S
C2190      C2191   1.409       .  A
C2191      C2192   1.402       .  A
C2191      F2195   1.357       .  S
C2192      H2196   1.083       .  S
C2197      C2198   1.407       .  A
C2197      C2202   1.402       .  A
C2197      H2207   1.083       .  S
C2198      C2203   1.493       .  S
C2198      C2199   1.408       .  A
C2199      C2200   1.399       .  A
C2199      F2204   1.357       .  S
C2200      C2201   1.407       .  A
C2200      H2205   1.083       .  S
C2201      C2202   1.411       .  A
C2202      F2206   1.357       .  S
C2203      C2208   1.408       .  A
C2203      C2212   1.407       .  A
C2208      C2209   1.398       .  A
C2208      F2213   1.357       .  S
C2209      C2210   1.406       .  A
C2209      H2214   1.083       .  S
C2210      C2211   1.409       .  A
C2211      C2212   1.404       .  A
C2211      F2215   1.357       .  S
C2212      H2216   1.083       .  S
C2217      C2218   1.409       .  A
C2217      C2222   1.407       .  A
C2217      H2227   1.083       .  S
C2218      C2223   1.486       .  S
C2218      C2219   1.402       .  A
C2219      C2220   1.398       .  A
C2219      F2224   1.357       .  S
C2220      C2221   1.408       .  A
C2220      H2225   1.084       .  S
C2221      C2222   1.406       .  A
C2222      F2226   1.357       .  S
C2223      C2228   1.409       .  A
C2223      C2232   1.401       .  A
C2228      C2229   1.407       .  A
C2228      F2233   1.357       .  S
C2229      C2230   1.406       .  A
C2229      H2234   1.083       .  S
C2230      C2231   1.410       .  A
C2231      C2232   1.397       .  A
C2231      F2235   1.358       .  S
C2232      H2236   1.084       .  S
C2237      C2238   1.409       .  A
C2237      C2242   1.410       .  A
C2237      H2247   1.083       .  S
C2238      C2243   1.490       .  S
C2238      C2239   1.404       .  A
C2239      C2240   1.394       .  A
C2239      F2244   1.358       .  S
C2240      C2241   1.406       .  A
C2240      H2245   1.084       .  S
C2241      C2242   1.408       .  A
C2242      F2246   1.357       .  S
C2243      C2248   1.404       .  A
C2243      C2252   1.408       .  A
C2248      C2249   1.403       .  A
C2248      F2253   1.357       .  S
C2249      C2250   1.411       .  A
C2249      H2254   1.083       .  S
C2250      C2251   1.405       .  A
C2251      C2252   1.402       .  A
C2251      F2255   1.357       .  S
C2252      H2256   1.083       .  S
C2257      C2258   1.403       .  A
C2257      C2262   1.400       .  A
C2257      H2267   1.083       .  S
C2258      C2263   1.480       .  S
C2258      C2259   1.405       .  A
C2259      C2260   1.401       .  A
C2259      F2264   1.357       .  S
C2260      C2261   1.403       .  A
C2260      H2265   1.081       .  S
C2261      C2262   1.408       .  A
C2262      F2266   1.358       .  S
C2263      C2268   1.401       .  A
C2263      C2272   1.407       .  A
C2268      C2269   1.394       .  A
C2268      F2273   1.358       .  S
C2269      C2270   1.406       .  A
C2269      H2274   1.084       .  S
C2270      C2271   1.407       .  A
C2271      C2272   1.407       .  A
C2271      F2275   1.357       .  S
C2272      H2276   1.083       .  S
C2277      C2278   1.407       .  A
C2277      C2282   1.398       .  A
C2277      H2287   1.083       .  S
C2278      C2283   1.492       .  S
C2278      C2279   1.409       .  A
C2279      C2280   1.404       .  A
C2279      F2284   1.357       .  S
C2280      C2281   1.403       .  A
C2280      H2285   1.081       .  S
C2281      C2282   1.404       .  A
C2282      F2286   1.358       .  S
C2283      C2288   1.408       .  A
C2283      C2292   1.405       .  A
C2288      C2289   1.404       .  A
C2288      F2293   1.357       .  S
C2289      C2290   1.409       .  A
C2289      H2294   1.083       .  S
C2290      C2291   1.411       .  A
C2291      C2292   1.398       .  A
C2291      F2295   1.358       .  S
C2292      H2296   1.083       .  S
C2297      C2298   1.401       .  A
C2297      C2302   1.395       .  A
C2297      H2307   1.084       .  S
C2298      C2303   1.489       .  S
C2298      C2299   1.410       .  A
C2299      C2300   1.409       .  A
C2299      F2304   1.357       .  S
C2300      C2301   1.408       .  A
C2300      H2305   1.083       .  S
C2301      C2302   1.411       .  A
C2302      F2306   1.358       .  S
C2303      C2308   1.405       .  A
C2303      C2312   1.403       .  A
C2308      C2309   1.398       .  A
C2308      F2313   1.358       .  S
C2309      C2310   1.411       .  A
C2309      H2314   1.078       .  S
C2310      C2311   1.417       .  A
C2311      C2312   1.406       .  A
C2311      F2315   1.357       .  S
C2312      H2316   1.083       .  S
C2317      C2318   1.407       .  A
C2317      C2322   1.403       .  A
C2317      H2327   1.083       .  S
C2318      C2323   1.485       .  S
C2318      C2319   1.405       .  A
C2319      C2320   1.399       .  A
C2319      F2324   1.358       .  S
C2320      C2321   1.405       .  A
C2320      H2325   1.084       .  S
C2321      C2322   1.406       .  A
C2322      F2326   1.357       .  S
C2323      C2328   1.407       .  A
C2323      C2332   1.404       .  A
C2328      C2329   1.404       .  A
C2328      F2333   1.357       .  S
C2329      C2330   1.406       .  A
C2329      H2334   1.083       .  S
C2330      C2331   1.407       .  A
C2331      C2332   1.398       .  A
C2331      F2335   1.357       .  S
C2332      H2336   1.083       .  S
C2337      C2338   1.401       .  A
C2337      C2342   1.393       .  A
C2337      H2347   1.084       .  S
C2338      C2343   1.486       .  S
C2338      C2339   1.411       .  A
C2339      C2340   1.408       .  A
C2339      F2344   1.357       .  S
C2340      C2341   1.405       .  A
C2340      H2345   1.083       .  S
C2341      C2342   1.406       .  A
C2342      F2346   1.358       .  S
C2343      C2348   1.406       .  A
C2343      C2352   1.401       .  A
C2348      C2349   1.396       .  A
C2348      F2353   1.358       .  S
C2349      C2350   1.409       .  A
C2349      H2354   1.077       .  S
C2350      C2351   1.417       .  A
C2351      C2352   1.403       .  A
C2351      F2355   1.358       .  S
C2352      H2356   1.083       .  S
C2357      C2358   1.404       .  A
C2357      C2362   1.398       .  A
C2357      H2367   1.083       .  S
C2358      C2363   1.484       .  S
C2358      C2359   1.405       .  A
C2359      C2360   1.400       .  A
C2359      F2364   1.357       .  S
C2360      C2361   1.409       .  A
C2360      H2365   1.083       .  S
C2361      C2362   1.411       .  A
C2362      F2366   1.357       .  S
C2363      C2368   1.403       .  A
C2363      C2372   1.404       .  A
C2368      C2369   1.397       .  A
C2368      F2373   1.358       .  S
C2369      C2370   1.411       .  A
C2369      H2374   1.082       .  S
C2370      C2371   1.409       .  A
C2371      C2372   1.402       .  A
C2371      F2375   1.353       .  S
C2372      H2376   1.083       .  S
C2377      C2378   1.404       .  A
C2377      C2382   1.403       .  A
C2377      H2387   1.083       .  S
C2378      C2383   1.487       .  S
C2378      C2379   1.407       .  A
C2379      C2380   1.402       .  A
C2379      F2384   1.357       .  S
C2380      C2381   1.404       .  A
C2380      H2385   1.083       .  S
C2381      C2382   1.410       .  A
C2382      F2386   1.357       .  S
C2383      C2388   1.405       .  A
C2383      C2392   1.403       .  A
C2388      C2389   1.402       .  A
C2388      F2393   1.357       .  S
C2389      C2390   1.409       .  A
C2389      H2394   1.083       .  S
C2390      C2391   1.413       .  A
C2391      C2392   1.403       .  A
C2391      F2395   1.357       .  S
C2392      H2396   1.083       .  S
C2397      C2398   1.409       .  A
C2397      C2402   1.401       .  A
C2397      H2407   1.083       .  S
C2398      C2403   1.489       .  S
C2398      C2399   1.408       .  A
C2399      C2400   1.397       .  A
C2399      F2404   1.358       .  S
C2400      C2401   1.403       .  A
C2400      H2405   1.084       .  S
C2401      C2402   1.402       .  A
C2402      F2406   1.357       .  S
C2403      C2408   1.405       .  A
C2403      C2412   1.408       .  A
C2408      C2409   1.397       .  A
C2408      F2413   1.357       .  S
C2409      C2410   1.409       .  A
C2409      H2414   1.083       .  S
C2410      C2411   1.405       .  A
C2411      C2412   1.401       .  A
C2411      F2415   1.355   1_565  S
C2412      H2416   1.083       .  S
C2417      C2418   1.401       .  A
C2417      C2422   1.394       .  A
C2417      H2427   1.084       .  S
C2418      C2423   1.480   1_565  S
C2418      C2419   1.404       .  A
C2419      C2420   1.397       .  A
C2419      F2424   1.358       .  S
C2420      C2421   1.411       .  A
C2420      H2425   1.078       .  S
C2421      C2422   1.413       .  A
C2422      F2426   1.358       .  S
C2423      C2428   1.408       .  A
C2423      C2432   1.402   1_545  A
C2428      C2429   1.398       .  A
C2428      F2433   1.358       .  S
C2429      C2430   1.405       .  A
C2429      H2434   1.083       .  S
C2430      C2431   1.411   1_545  A
C2431      C2432   1.394       .  A
C2431      F2435   1.358   1_655  S
C2432      H2436   1.083       .  S
C2437      C2438   1.400       .  A
C2437      C2442   1.396       .  A
C2437      H2447   1.084       .  S
C2438      C2443   1.483       .  S
C2438      C2439   1.408       .  A
C2439      C2440   1.404       .  A
C2439      F2444   1.357       .  S
C2440      C2441   1.403       .  A
C2440      H2445   1.080       .  S
C2441      C2442   1.411       .  A
C2442      F2446   1.358       .  S
C2443      C2448   1.403       .  A
C2443      C2452   1.404       .  A
C2448      C2449   1.401       .  A
C2448      F2453   1.357       .  S
C2449      C2450   1.409       .  A
C2449      H2454   1.083       .  S
C2450      C2451   1.412       .  A
C2451      C2452   1.401       .  A
C2451      F2455   1.358       .  S
C2452      H2456   1.083       .  S
C2457      C2458   1.405       .  A
C2457      C2462   1.400       .  A
C2457      H2467   1.083       .  S
C2458      C2463   1.493       .  S
C2458      C2459   1.409       .  A
C2459      C2460   1.401       .  A
C2459      F2464   1.357       .  S
C2460      C2461   1.406       .  A
C2460      H2465   1.083       .  S
C2461      C2462   1.411       .  A
C2462      F2466   1.355       .  S
C2463      C2468   1.407       .  A
C2463      C2472   1.410       .  A
C2468      C2469   1.396       .  A
C2468      F2473   1.358       .  S
C2469      C2470   1.406       .  A
C2469      H2474   1.084       .  S
C2470      C2471   1.404       .  A
C2471      C2472   1.405       .  A
C2471      F2475   1.357       .  S
C2472      H2476   1.083       .  S
C2477      C2478   1.400       .  A
C2477      C2482   1.394       .  A
C2477      H2487   1.084       .  S
C2478      C2483   1.483       .  S
C2478      C2479   1.404       .  A
C2479      C2480   1.404       .  A
C2479      F2484   1.357       .  S
C2480      C2481   1.413       .  A
C2480      H2485   1.078       .  S
C2481      C2482   1.414       .  A
C2482      F2486   1.358       .  S
C2483      C2488   1.402       .  A
C2483      C2492   1.406       .  A
C2488      C2489   1.393       .  A
C2488      F2493   1.358       .  S
C2489      C2490   1.410       .  A
C2489      H2494   1.083       .  S
C2490      C2491   1.411       .  A
C2491      C2492   1.407       .  A
C2491      F2495   1.357       .  S
C2492      H2496   1.083       .  S
C2497      C2498   1.406       .  A
C2497      C2502   1.401       .  A
C2497      H2507   1.083       .  S
C2498      C2503   1.484       .  S
C2498      C2499   1.406       .  A
C2499      C2500   1.398       .  A
C2499      F2504   1.357       .  S
C2500      C2501   1.403       .  A
C2500      H2505   1.084       .  S
C2501      C2502   1.403       .  A
C2502      F2506   1.357       .  S
C2503      C2508   1.402       .  A
C2503      C2512   1.402       .  A
C2508      C2509   1.400       .  A
C2508      F2513   1.358       .  S
C2509      C2510   1.415       .  A
C2509      H2514   1.076       .  S
C2510      C2511   1.413       .  A
C2511      C2512   1.399       .  A
C2511      F2515   1.358       .  S
C2512      H2516   1.083       .  S
C2517      C2518   1.402       .  A
C2517      C2522   1.398       .  A
C2517      H2527   1.083       .  S
C2518      C2523   1.481       .  S
C2518      C2519   1.406       .  A
C2519      C2520   1.398       .  A
C2519      F2524   1.358       .  S
C2520      C2521   1.407       .  A
C2520      H2525   1.083       .  S
C2521      C2522   1.412       .  A
C2522      F2526   1.357       .  S
C2523      C2528   1.406       .  A
C2523      C2532   1.404       .  A
C2528      C2529   1.400       .  A
C2528      F2533   1.357       .  S
C2529      C2530   1.404       .  A
C2529      H2534   1.083       .  S
C2530      C2531   1.408       .  A
C2531      C2532   1.396       .  A
C2531      F2535   1.357       .  S
C2532      H2536   1.083       .  S
C2537      C2538   1.402       .  A
C2537      C2542   1.400       .  A
C2537      H2547   1.083       .  S
C2538      C2543   1.485       .  S
C2538      C2539   1.404       .  A
C2539      C2540   1.404       .  A
C2539      F2544   1.357       .  S
C2540      C2541   1.411       .  A
C2540      H2545   1.083       .  S
C2541      C2542   1.413       .  A
C2542      F2546   1.357       .  S
C2543      C2548   1.407       .  A
C2543      C2552   1.404       .  A
C2548      C2549   1.401       .  A
C2548      F2553   1.357       .  S
C2549      C2550   1.402       .  A
C2549      H2554   1.083       .  S
C2550      C2551   1.406       .  A
C2551      C2552   1.403       .  A
C2551      F2555   1.357       .  S
C2552      H2556   1.083       .  S
C2557      C2558   1.405       .  A
C2557      C2562   1.404       .  A
C2557      H2567   1.083       .  S
C2558      C2563   1.492       .  S
C2558      C2559   1.407       .  A
C2559      C2560   1.400       .  A
C2559      F2564   1.358       .  S
C2560      C2561   1.408       .  A
C2560      H2565   1.083       .  S
C2561      C2562   1.413       .  A
C2562      F2566   1.357       .  S
C2563      C2568   1.408       .  A
C2563      C2572   1.408       .  A
C2568      C2569   1.402       .  A
C2568      F2573   1.357       .  S
C2569      C2570   1.404       .  A
C2569      H2574   1.083       .  S
C2570      C2571   1.403       .  A
C2571      C2572   1.402       .  A
C2571      F2575   1.357       .  S
C2572      H2576   1.083       .  S
