geometry optimzed in LAMMPS
_audit_creation_date              2020-11-30 
_audit_creation_method            'lammps2cif' 
_symmetry_space_group_name_H-M    'P1' 
_symmetry_Int_Tables_number       1 
_symmetry_cell_setting            triclinic 
loop_ 
_symmetry_equiv_pos_as_xyz 
  x,y,z 
_cell_length_a                    21.52126056 
_cell_length_b                    21.400898080496102 
_cell_length_c                    40.45417349092668 
_cell_angle_alpha                 89.91751488169353 
_cell_angle_beta                  89.86221009940883 
_cell_angle_gamma                 90.03928502626466 
loop_ 
_atom_site_label 
_atom_site_type_symbol 
_atom_site_fract_x 
_atom_site_fract_y 
_atom_site_fract_z 
_atom_site_charge 
C1          C  0.43567883  0.42899735  0.44227224    -0.02300
C2          C  0.13081458  0.12314032  0.44811750    -0.02300
C3          C  0.18429555  0.37147711  0.34430181    -0.02300
C4          C  0.38040748  0.17663173  0.34460386    -0.02300
O5          O  0.07982357  0.32380332  0.34612904    -0.57600
C6          C  0.44014550  0.19791480  0.36202044     0.75000
O7          O  0.08259050  0.22804130  0.44573046    -0.58800
C8          C  0.12607889  0.34601330  0.36139776     0.75000
C9          C  0.45910147  0.36919792  0.42534087     0.77400
Cd10       Cd  0.03249644  0.27188124  0.39500994     1.37500
O11         O  0.48510193  0.22233828  0.34640340    -0.57600
O12         O  0.46109843  0.36260711  0.39443773    -0.56400
C13         C  0.10669857  0.18199673  0.43083165     0.77400
O14         O  0.48149556  0.32395673  0.44166621    -0.58800
O15         O  0.44638788  0.19652215  0.39299394    -0.57200
O16         O  0.12618128  0.33665830  0.39229622    -0.57200
O17         O  0.09981831  0.18176506  0.39972284    -0.56400
O18         O  0.23470891  0.07520102  0.44484799    -0.57600
C19         C  0.37496590  0.45327645  0.42752519     0.75000
O20         O  0.22858764  0.47728150  0.34704957    -0.58800
C21         C  0.18950023  0.10040859  0.43003405     0.75000
C22         C  0.35567990  0.11548554  0.35885537     0.77400
Cd23       Cd  0.28038393  0.02647283  0.39468148     1.37500
O24         O  0.34580256  0.49776894  0.44126965    -0.57600
O25         O  0.37285466  0.09461097  0.38655340    -0.56400
C26         C  0.20706173  0.43044212  0.36249513     0.77400
O27         O  0.30902922  0.08860991  0.34621773    -0.58800
O28         O  0.35600787  0.43785644  0.39904327    -0.57200
O29         O  0.19319561  0.09996341  0.39888885    -0.57200
O30         O  0.21130149  0.43329159  0.39370932    -0.56400
C31         C  0.42418090  0.43092233  0.08845758    -0.02300
C32         C  0.11781845  0.12537119  0.09403923    -0.02300
C33         C  0.36805665  0.17604250  0.19838085    -0.02300
C34         C  0.17333068  0.37000054  0.19791756    -0.02300
O35         O  0.30165369  0.08334063  0.19373935    -0.57600
C36         C  0.20244055  0.42738854  0.18078275     0.75000
O37         O  0.19431881  0.04270993  0.10233466    -0.58800
C38         C  0.34380651  0.11699810  0.18098387     0.75000
C39         C  0.36433596  0.45372542  0.10527310     0.77400
Cd40       Cd  0.27220986  0.02325876  0.14436388     1.37500
O41         O  0.25467907  0.44871920  0.18970373    -0.57600
O42         O  0.35415408  0.44334506  0.13555768    -0.56400
C43         C  0.17423575  0.09560518  0.11147411     0.77400
O44         O  0.32868939  0.49388384  0.09230487    -0.58800
O45         O  0.17965656  0.45350516  0.15559816    -0.57200
O46         O  0.35642457  0.10440588  0.15113010    -0.57200
O47         O  0.20237091  0.11916339  0.13593593    -0.56400
O48         O  0.50613815  0.35345603  0.09870953    -0.57600
C49         C  0.09250521  0.18549549  0.10933157     0.75000
O50         O  0.08481529  0.29916764  0.19368316    -0.58800
C51         C  0.45273407  0.37381381  0.10633385     0.75000
C52         C  0.42442832  0.20648204  0.18050773     0.77400
Cd53       Cd  0.01971284  0.27899792  0.14465800     1.37500
O54         O  0.04504232  0.21211385  0.09718654    -0.57600
O55         O  0.45145480  0.18338203  0.15553398    -0.56400
C56         C  0.11247781  0.34714492  0.18256551     0.77400
O57         O  0.44418879  0.25992503  0.18904199    -0.58800
O58         O  0.11116237  0.20710545  0.13662567    -0.57200
O59         O  0.42746325  0.34660222  0.13067117    -0.57200
O60         O  0.09110506  0.36874952  0.15583507    -0.56400
C61         C  0.31138777  0.22059041  0.19572962    -0.05900
C62         C  0.30784144  0.26302343  0.16904906    -0.17000
C63         C  0.26021504  0.30676094  0.16664968     0.11300
C64         C  0.21691706  0.31302977  0.19280239    -0.05800
C65         C  0.21166286  0.26181468  0.21428480    -0.17100
C66         C  0.25762562  0.21590931  0.21631944     0.11300
S67         S  0.25052243  0.34283733  0.12696745    -0.32000
S68         S  0.24450058  0.15303454  0.24537168    -0.32000
H69         H  0.17917740  0.15600938  0.24483277     0.29300
H70         H  0.18648369  0.33109718  0.12558994     0.29300
H71         H  0.34055127  0.26034568  0.14877105     0.19900
H72         H  0.17106851  0.25822973  0.22969037     0.19900
C73         C  0.46770477  0.48795267  0.09296613    -0.05900
C74         C  0.00651240  0.99216152  0.12101065    -0.17000
C75         C  0.05022535  0.03999818  0.12427168     0.11300
C76         C  0.06116943  0.08097029  0.09726392    -0.05800
C77         C  0.01394022  0.08478646  0.07337303    -0.17100
C78         C  0.96612723  0.04102639  0.07175725     0.11300
S79         S  0.08231114  0.05147846  0.16489257    -0.32000
S80         S  0.40412701  0.05625286  0.04284989    -0.32000
H81         H  0.40969609  0.62175393  0.04367967     0.29300
H82         H  0.06553191  0.11470128  0.16634203     0.29300
H83         H  0.00111937  0.45962400  0.14133479     0.19900
H84         H  0.01493245  0.12224897  0.05548782     0.19900
C85         C  0.39379587  0.17404583  0.30656248    -0.05900
C86         C  0.39464160  0.11662207  0.28910936    -0.17000
C87         C  0.39440880  0.11408652  0.25418310     0.11300
C88         C  0.38667008  0.17003733  0.23557166    -0.05800
C89         C  0.39370820  0.22651251  0.25305393    -0.17100
C90         C  0.40126299  0.22932040  0.28715341     0.11300
S91         S  0.40870290  0.03884820  0.23580273    -0.32000
S92         S  0.42258310  0.30635661  0.30191109    -0.32000
H93         H  0.40503681  0.30376590  0.33499014     0.29300
H94         H  0.44383774  0.06316998  0.20935095     0.29300
H95         H  0.39661033  0.07298546  0.30258601     0.19900
H96         H  0.39085499  0.27061742  0.24007932     0.19900
C97         C  0.17922902  0.38780551  0.30667181    -0.05900
C98         C  0.12124372  0.39399362  0.29038465    -0.17000
C99         C  0.11621413  0.39412099  0.25552629     0.11300
C100        C  0.17031056  0.38554988  0.23568787    -0.05800
C101        C  0.22773840  0.38999800  0.25212964    -0.17100
C102        C  0.23312727  0.39451828  0.28629297     0.11300
S103        S  0.04033564  0.41020100  0.23886707    -0.32000
S104        S  0.31194312  0.40995659  0.29968108    -0.32000
H105        H  0.30949645  0.40234277  0.33371833     0.29300
H106        H  0.06330228  0.44770035  0.21303780     0.29300
H107        H  0.07914424  0.40016406  0.30457436     0.19900
H108        H  0.27053015  0.38700567  0.23812526     0.19900
C109        C  0.23029752  0.31582426  0.34812508    -0.05900
C110        C  0.27482613  0.31430182  0.37362752    -0.17000
C111        C  0.31762533  0.26583291  0.37675924     0.11300
C112        C  0.32466284  0.22195420  0.35048733    -0.05800
C113        C  0.27389661  0.21745414  0.32873154    -0.17100
C114        C  0.22556493  0.26060933  0.32884208     0.11300
S115        S  0.34532555  0.25576548  0.41835477    -0.32000
S116        S  0.15769802  0.23923115  0.30589150    -0.32000
H117        H  0.17733495  0.27729966  0.28025796     0.29300
H118        H  0.33329991  0.19125208  0.41877910     0.29300
H119        H  0.27398784  0.34774895  0.39334508     0.19500
H120        H  0.27138994  0.17899139  0.31152565     0.19900
C121        C  0.14487787  0.12620445  0.48593151    -0.05900
C122        C  0.14872592  0.18354821  0.00326811    -0.17000
C123        C  0.14671542  0.18615568  0.03817731     0.11300
C124        C  0.13628291  0.13059663  0.05672928    -0.05800
C125        C  0.14204232  0.07392045  0.03940684    -0.17100
C126        C  0.15046554  0.07084565  0.00545219     0.11300
S127        S  0.16402740  0.26041662  0.05681222    -0.32000
S128        S  0.17268679  0.99369046  0.49138780    -0.32000
H129        H  0.15597728  0.99498767  0.45826479     0.29300
H130        H  0.19877372  0.23384592  0.08270432     0.29300
H131        H  0.15494339  0.22677478  0.48989379     0.19900
H132        H  0.13788391  0.02996779  0.05246265     0.19900
C133        C  0.43125887  0.41426182  0.48007570    -0.05900
C134        C  0.37313098  0.40960686  0.99628862    -0.17000
C135        C  0.36817923  0.40662556  0.03099245     0.11300
C136        C  0.42192502  0.41414787  0.05091529    -0.05800
C137        C  0.47953706  0.40978292  0.03452226    -0.17100
C138        C  0.48512065  0.40658093  0.00031476     0.11300
S139        S  0.29382307  0.38541295  0.04744761    -0.32000
S140        S  0.06357845  0.39009750  0.48652477    -0.32000
H141        H  0.06167975  0.40498070  0.45308606     0.29300
H142        H  0.32113749  0.34265439  0.06946333     0.29300
H143        H  0.33083477  0.40647347  0.48194537     0.19900
H144        H  0.52223799  0.41178742  0.04861949     0.19900
C145        C  0.48008781  0.48575938  0.43757249    -0.05900
C146        C  0.97511360  0.03544382  0.46021726    -0.17000
C147        C  0.01959809  0.08273618  0.46206182     0.11300
C148        C  0.07522522  0.07777363  0.44318874    -0.05800
C149        C  0.07408835  0.03480406  0.41670821    -0.17100
C150        C  0.02489616  0.99356888  0.41202189     0.11300
S151        S  0.00185894  0.14886985  0.48803113    -0.32000
S152        S  0.51569020  0.96839626  0.36988226    -0.32000
H153        H  0.45153285  0.48011985  0.36934719     0.29300
H154        H  0.93701906  0.14519775  0.48393099     0.29300
H155        H  0.93618740  0.53694267  0.47698682     0.19900
H156        H  0.10899792  0.03514772  0.39770427     0.19900
C157        C  0.43567855  0.42899706  0.94227226    -0.02300
C158        C  0.13081425  0.12313997  0.94811757    -0.02300
C159        C  0.18429522  0.37147678  0.84430205    -0.02300
C160        C  0.38040706  0.17663157  0.84460407    -0.02300
O161        O  0.07982383  0.32380179  0.84612917    -0.57600
C162        C  0.44014499  0.19791475  0.86202066     0.75000
O163        O  0.08258986  0.22804068  0.94573070    -0.58800
C164        C  0.12607845  0.34601305  0.86139796     0.75000
C165        C  0.45910103  0.36919757  0.92534094     0.77400
Cd166      Cd  0.03249613  0.27188098  0.89501017     1.37500
O167        O  0.48510097  0.22233897  0.84640361    -0.57600
O168        O  0.46109806  0.36260669  0.89443779    -0.56400
C169        C  0.10669827  0.18199643  0.93083180     0.77400
O170        O  0.48149501  0.32395640  0.94166635    -0.58800
O171        O  0.44638776  0.19652147  0.89299413    -0.57200
O172        O  0.12618022  0.33665920  0.89229653    -0.57200
O173        O  0.09981830  0.18176510  0.89972297    -0.56400
O174        O  0.23470883  0.07520109  0.94484807    -0.57600
C175        C  0.37496569  0.45327630  0.92752519     0.75000
O176        O  0.22858666  0.47728140  0.84704973    -0.58800
C177        C  0.18949999  0.10040836  0.93003411     0.75000
C178        C  0.35567955  0.11548529  0.85885544     0.77400
Cd179      Cd  0.28038370  0.02647272  0.89468153     1.37500
O180        O  0.34580239  0.49776880  0.94126968    -0.57600
O181        O  0.37285437  0.09461049  0.88655340    -0.56400
C182        C  0.20706139  0.43044178  0.86249533     0.77400
O183        O  0.30902892  0.08860972  0.84621770    -0.58800
O184        O  0.35600765  0.43785631  0.89904327    -0.57200
O185        O  0.19319535  0.09996313  0.89888892    -0.57200
O186        O  0.21130179  0.43329109  0.89370949    -0.56400
C187        C  0.42418162  0.43092283  0.58845759    -0.02300
C188        C  0.11781938  0.12537137  0.59403920    -0.02300
C189        C  0.36805669  0.17604237  0.69838100    -0.02300
C190        C  0.17333069  0.37000034  0.69791758    -0.02300
O191        O  0.30165419  0.08334013  0.69373955    -0.57600
C192        C  0.20244057  0.42738845  0.68078285     0.75000
O193        O  0.19431960  0.04271006  0.60233467    -0.58800
C194        C  0.34380666  0.11699794  0.68098399     0.75000
C195        C  0.36433672  0.45372589  0.60527316     0.77400
Cd196      Cd  0.27221022  0.02325864  0.64436408     1.37500
O197        O  0.25467906  0.44871910  0.68970390    -0.57600
O198        O  0.35415481  0.44334539  0.63555772    -0.56400
C199        C  0.17423657  0.09560532  0.61147413     0.77400
O200        O  0.32869003  0.49388421  0.59230494    -0.58800
O201        O  0.17965670  0.45350507  0.65559822    -0.57200
O202        O  0.35642445  0.10440601  0.65113015    -0.57200
O203        O  0.20237159  0.11916344  0.63593603    -0.56400
O204        O  0.50613839  0.35345598  0.59870945    -0.57600
C205        C  0.09250593  0.18549553  0.60933156     0.75000
O206        O  0.08481465  0.29916827  0.69368333    -0.58800
C207        C  0.45273454  0.37381414  0.60633385     0.75000
C208        C  0.42442858  0.20648169  0.68050793     0.77400
Cd209      Cd  0.01971308  0.27899776  0.64465796     1.37500
O210        O  0.04504306  0.21211382  0.59718646    -0.57600
O211        O  0.45145429  0.18338211  0.65553383    -0.56400
C212        C  0.11247779  0.34714502  0.68256548     0.77400
O213        O  0.44418987  0.25992419  0.68904250    -0.58800
O214        O  0.11116269  0.20710529  0.63662578    -0.57200
O215        O  0.42746368  0.34660269  0.63067121    -0.57200
O216        O  0.09110572  0.36874914  0.65583478    -0.56400
C217        C  0.31138786  0.22059043  0.69572967    -0.05900
C218        C  0.30784226  0.26302413  0.66904939    -0.17000
C219        C  0.26021573  0.30676148  0.66664984     0.11300
C220        C  0.21691690  0.31302953  0.69280219    -0.05800
C221        C  0.21166183  0.26181361  0.71428395    -0.17100
C222        C  0.25762501  0.21590869  0.71631898     0.11300
S223        S  0.25052327  0.34283766  0.62696755    -0.32000
S224        S  0.24449993  0.15303394  0.74537124    -0.32000
H225        H  0.17917672  0.15600782  0.74483166     0.29300
H226        H  0.18648462  0.33109699  0.62558986     0.29300
H227        H  0.34055260  0.26034686  0.64877159     0.19900
H228        H  0.17106642  0.25822780  0.72968882     0.19900
C229        C  0.46770555  0.48795310  0.59296613    -0.05900
C230        C  0.00651318  0.99216197  0.62101071    -0.17000
C231        C  0.05022608  0.03999868  0.62427173     0.11300
C232        C  0.06117039  0.08097048  0.59726385    -0.05800
C233        C  0.01394119  0.08478665  0.57337297    -0.17100
C234        C  0.96612806  0.04102678  0.57175730     0.11300
S235        S  0.08231185  0.05147925  0.66489261    -0.32000
S236        S  0.40412739  0.05625364  0.54285020    -0.32000
H237        H  0.40969688  0.62175468  0.54367994     0.29300
H238        H  0.06553087  0.11470162  0.66634233     0.29300
H239        H  0.00111989  0.45962444  0.64133477     0.19900
H240        H  0.01493346  0.12224913  0.55548769     0.19900
C241        C  0.39379556  0.17404576  0.80656270    -0.05900
C242        C  0.39464172  0.11662199  0.78910957    -0.17000
C243        C  0.39440874  0.11408639  0.75418332     0.11300
C244        C  0.38666979  0.17003719  0.73557186    -0.05800
C245        C  0.39370764  0.22651239  0.75305414    -0.17100
C246        C  0.40126232  0.22932037  0.78715363     0.11300
S247        S  0.40870317  0.03884808  0.73580301    -0.32000
S248        S  0.42258151  0.30635684  0.80191134    -0.32000
H249        H  0.40503568  0.30376592  0.83499046     0.29300
H250        H  0.44383791  0.06316994  0.70935122     0.29300
H251        H  0.39661083  0.07298536  0.80258623     0.19900
H252        H  0.39085432  0.27061730  0.74007950     0.19900
C253        C  0.17922877  0.38780489  0.80667196    -0.05900
C254        C  0.12124354  0.39399220  0.79038470    -0.17000
C255        C  0.11621413  0.39411990  0.75552636     0.11300
C256        C  0.17031066  0.38554919  0.73568795    -0.05800
C257        C  0.22773837  0.38999746  0.75212980    -0.17100
C258        C  0.23312707  0.39451813  0.78629314     0.11300
S259        S  0.04033578  0.41020042  0.73886714    -0.32000
S260        S  0.31194253  0.40995786  0.79968139    -0.32000
H261        H  0.30949600  0.40234204  0.83371854     0.29300
H262        H  0.06330263  0.44770029  0.71303812     0.29300
H263        H  0.07914389  0.40016229  0.80457435     0.19900
H264        H  0.27053030  0.38700528  0.73812541     0.19900
C265        C  0.23029713  0.31582398  0.84812548    -0.05900
C266        C  0.27482541  0.31430117  0.87362810    -0.17000
C267        C  0.31762469  0.26583225  0.87675971     0.11300
C268        C  0.32466237  0.22195392  0.85048762    -0.05800
C269        C  0.27389641  0.21745425  0.82873161    -0.17100
C270        C  0.22556477  0.26060947  0.82884224     0.11300
S271        S  0.34532523  0.25576445  0.91835519    -0.32000
S272        S  0.15769983  0.23923434  0.80588939    -0.32000
H273        H  0.17734907  0.27729633  0.78025574     0.29300
H274        H  0.33329978  0.19125102  0.91877935     0.29300
H275        H  0.27398687  0.34774794  0.89334580     0.19500
H276        H  0.27139015  0.17899215  0.81152534     0.19900
C277        C  0.14487754  0.12620414  0.98593157    -0.05900
C278        C  0.14872648  0.18354847  0.50326806    -0.17000
C279        C  0.14671624  0.18615595  0.53817725     0.11300
C280        C  0.13628390  0.13059688  0.55672924    -0.05800
C281        C  0.14204316  0.07392070  0.53940678    -0.17100
C282        C  0.15046585  0.07084591  0.50545209     0.11300
S283        S  0.16402814  0.26041696  0.55681209    -0.32000
S284        S  0.17268708  0.99369032  0.99138803    -0.32000
H285        H  0.15597719  0.99498743  0.95826507     0.29300
H286        H  0.19877406  0.23384639  0.58270437     0.29300
H287        H  0.15494289  0.22677446  0.98989388     0.19900
H288        H  0.13788482  0.02996807  0.55246258     0.19900
C289        C  0.43125845  0.41426152  0.98007573    -0.05900
C290        C  0.37313144  0.40960749  0.49628867    -0.17000
C291        C  0.36817988  0.40662633  0.53099251     0.11300
C292        C  0.42192572  0.41414849  0.55091528    -0.05800
C293        C  0.47953772  0.40978330  0.53452219    -0.17100
C294        C  0.48512112  0.40658112  0.50031466     0.11300
S295        S  0.29382375  0.38541376  0.54744770    -0.32000
S296        S  0.06357824  0.39009829  0.98652489    -0.32000
H297        H  0.06167924  0.40497983  0.95308598     0.29300
H298        H  0.32113815  0.34265495  0.56946329     0.29300
H299        H  0.33083435  0.40647268  0.98194522     0.19900
H300        H  0.52223870  0.41178751  0.54861939     0.19900
C301        C  0.48008765  0.48575897  0.93757255    -0.05900
C302        C  0.97511323  0.03544339  0.96021730    -0.17000
C303        C  0.01959765  0.08273576  0.96206193     0.11300
C304        C  0.07522485  0.07777329  0.94318884    -0.05800
C305        C  0.07408801  0.03480379  0.91670832    -0.17100
C306        C  0.02489592  0.99356859  0.91202193     0.11300
S307        S  0.00185840  0.14886918  0.98803138    -0.32000
S308        S  0.51569010  0.96839574  0.86988235    -0.32000
H309        H  0.45153275  0.48011965  0.86934723     0.29300
H310        H  0.93701854  0.14519726  0.98393105     0.29300
H311        H  0.93618722  0.53694218  0.97698693     0.19900
H312        H  0.10899771  0.03514752  0.89770438     0.19900
C313        C  0.43567783  0.92899717  0.44227205    -0.02300
C314        C  0.13081590  0.62314053  0.44811749    -0.02300
C315        C  0.18429371  0.87147667  0.34430185    -0.02300
C316        C  0.38040835  0.67663274  0.34460224    -0.02300
O317        O  0.07981916  0.82380819  0.34612959    -0.57600
C318        C  0.44014627  0.69791541  0.36201910     0.75000
O319        O  0.08259126  0.72804119  0.44573039    -0.58800
C320        C  0.12607764  0.84601230  0.36139798     0.75000
C321        C  0.45910094  0.86919784  0.42534065     0.77400
Cd322      Cd  0.03249580  0.77188033  0.39501011     1.37500
O323        O  0.48510305  0.72233883  0.34640233    -0.57600
O324        O  0.46109781  0.86260692  0.39443752    -0.56400
C325        C  0.10669934  0.68199664  0.43083157     0.77400
O326        O  0.48149538  0.82395675  0.44166593    -0.58800
O327        O  0.44638824  0.69652235  0.39299263    -0.57200
O328        O  0.12618287  0.83665224  0.39229602    -0.57200
O329        O  0.09981828  0.68176451  0.39972280    -0.56400
O330        O  0.23471059  0.57520162  0.44484788    -0.57600
C331        C  0.37496443  0.95327544  0.42752516     0.75000
O332        O  0.22858344  0.97728203  0.34705032    -0.58800
C333        C  0.18950164  0.60040886  0.43003401     0.75000
C334        C  0.35568075  0.61548645  0.35885384     0.77400
Cd335      Cd  0.28038593  0.52647385  0.39468098     1.37500
O336        O  0.34579963  0.99776632  0.44127022    -0.57600
O337        O  0.37285634  0.59461155  0.38655167    -0.56400
C338        C  0.20705915  0.93044154  0.36249563     0.77400
O339        O  0.30902963  0.58861097  0.34621660    -0.58800
O340        O  0.35600763  0.93785693  0.39904277    -0.57200
O341        O  0.19319687  0.59996355  0.39888881    -0.57200
O342        O  0.21130001  0.93328989  0.39370980    -0.56400
C343        C  0.42418184  0.93092221  0.08845760    -0.02300
C344        C  0.11781880  0.62537232  0.09403907    -0.02300
C345        C  0.36805772  0.67604453  0.19837951    -0.02300
C346        C  0.17333186  0.87000311  0.19791824    -0.02300
O347        O  0.30165329  0.58334359  0.19373875    -0.57600
C348        C  0.20244155  0.92739033  0.18078295     0.75000
O349        O  0.19431781  0.54271003  0.10233511    -0.58800
C350        C  0.34380680  0.61699993  0.18098297     0.75000
C351        C  0.36433662  0.95372527  0.10527297     0.77400
Cd352      Cd  0.27220929  0.52325892  0.14436410     1.37500
O353        O  0.25467977  0.94872154  0.18970401    -0.57600
O354        O  0.35415028  0.94333928  0.13555659    -0.56400
C355        C  0.17423577  0.59560593  0.11147409     0.77400
O356        O  0.32869373  0.99388807  0.09230572    -0.58800
O357        O  0.17965773  0.95350556  0.15559788    -0.57200
O358        O  0.35642533  0.60440601  0.15112945    -0.57200
O359        O  0.20237172  0.61916457  0.13593556    -0.56400
O360        O  0.50614034  0.85345774  0.09870968    -0.57600
C361        C  0.09250635  0.68549664  0.10933153     0.75000
O362        O  0.08481792  0.79916843  0.19368392    -0.58800
C363        C  0.45273548  0.87381399  0.10633366     0.75000
C364        C  0.42442854  0.70648441  0.18050601     0.77400
Cd365      Cd  0.01971495  0.77899852  0.14465829     1.37500
O366        O  0.04504482  0.71211667  0.09718603    -0.57600
O367        O  0.45145657  0.68338324  0.15553305    -0.56400
C368        C  0.11247951  0.84714620  0.18256621     0.77400
O369        O  0.44418790  0.75992807  0.18903979    -0.58800
O370        O  0.11116245  0.70710469  0.13662627    -0.57200
O371        O  0.42746428  0.84660130  0.13067049    -0.57200
O372        O  0.09110629  0.86875042  0.15583577    -0.56400
C373        C  0.31138889  0.72059238  0.19572893    -0.05900
C374        C  0.30783895  0.76302267  0.16904733    -0.17000
C375        C  0.26021258  0.80676063  0.16664889     0.11300
C376        C  0.21691912  0.81303291  0.19280369    -0.05800
C377        C  0.21166900  0.76182091  0.21428836    -0.17100
C378        C  0.25762987  0.71591385  0.21632112     0.11300
S379        S  0.25051489  0.84283511  0.12696654    -0.32000
S380        S  0.24450545  0.65303885  0.24537317    -0.32000
H381        H  0.17918232  0.65601544  0.24483540     0.29300
H382        H  0.18647760  0.83108678  0.12558978     0.29300
H383        H  0.34054640  0.76034261  0.14876811     0.19900
H384        H  0.17107845  0.75823877  0.22969685     0.19900
C385        C  0.46770544  0.98795242  0.09296639    -0.05900
C386        C  0.00651196  0.49216296  0.12101015    -0.17000
C387        C  0.05022496  0.53999954  0.12427124     0.11300
C388        C  0.06116922  0.58097188  0.09726357    -0.05800
C389        C  0.01393995  0.58478823  0.07337266    -0.17100
C390        C  0.96612655  0.54102829  0.07175697     0.11300
S391        S  0.08231136  0.55147874  0.16489206    -0.32000
S392        S  0.40412514  0.55625299  0.04285014    -0.32000
H393        H  0.40969380  0.12175403  0.04368291     0.29300
H394        H  0.06552983  0.61470089  0.16634243     0.29300
H395        H  0.00111956  0.95962282  0.14133541     0.19900
H396        H  0.01493237  0.62225091  0.05548744     0.19900
C397        C  0.39379719  0.67404701  0.30656093    -0.05900
C398        C  0.39464366  0.61662347  0.28910762    -0.17000
C399        C  0.39441186  0.61408835  0.25418134     0.11300
C400        C  0.38667281  0.67003934  0.23557009    -0.05800
C401        C  0.39371111  0.72651430  0.25305253    -0.17100
C402        C  0.40126489  0.72932181  0.28715206     0.11300
S403        S  0.40870776  0.53885077  0.23580052    -0.32000
S404        S  0.42258491  0.80635781  0.30191007    -0.32000
H405        H  0.40503911  0.80376678  0.33498919     0.29300
H406        H  0.44384115  0.56317390  0.20934854     0.29300
H407        H  0.39661221  0.57298654  0.30258423     0.19900
H408        H  0.39085817  0.77061943  0.24007808     0.19900
C409        C  0.17922763  0.88780671  0.30667222    -0.05900
C410        C  0.12124274  0.89399706  0.29038486    -0.17000
C411        C  0.11621404  0.89412532  0.25552644     0.11300
C412        C  0.17031087  0.88555390  0.23568838    -0.05800
C413        C  0.22773832  0.89000132  0.25213048    -0.17100
C414        C  0.23312651  0.89451938  0.28629383     0.11300
S415        S  0.04033627  0.91020584  0.23886658    -0.32000
S416        S  0.31194278  0.90995445  0.29968252    -0.32000
H417        H  0.30949456  0.90234846  0.33372019     0.29300
H418        H  0.06330419  0.94770329  0.21303690     0.29300
H419        H  0.07914297  0.90016750  0.30457436     0.19900
H420        H  0.27053033  0.88700951  0.23812629     0.19900
C421        C  0.23029642  0.81582406  0.34812407    -0.05900
C422        C  0.27482675  0.81430268  0.37362566    -0.17000
C423        C  0.31762637  0.76583437  0.37675730     0.11300
C424        C  0.32466381  0.72195560  0.35048542    -0.05800
C425        C  0.27389689  0.71745477  0.32873009    -0.17100
C426        C  0.22556364  0.76060837  0.32884121     0.11300
S427        S  0.34532631  0.75576698  0.41835292    -0.32000
S428        S  0.15768818  0.73921693  0.30590015    -0.32000
H429        H  0.17727472  0.77731195  0.28026705     0.29300
H430        H  0.33330152  0.69125343  0.41877712     0.29300
H431        H  0.27398909  0.84775016  0.39334321     0.19500
H432        H  0.27138939  0.67899032  0.31152529     0.19900
C433        C  0.14487913  0.62620510  0.48593148    -0.05900
C434        C  0.14872677  0.68354908  0.00326799    -0.17000
C435        C  0.14671612  0.68615687  0.03817714     0.11300
C436        C  0.13628368  0.63059785  0.05672922    -0.05800
C437        C  0.14204347  0.57392163  0.03940692    -0.17100
C438        C  0.15046712  0.57084662  0.00545235     0.11300
S439        S  0.16402815  0.76041803  0.05681178    -0.32000
S440        S  0.17268925  0.49369131  0.49138823    -0.32000
H441        H  0.15597863  0.49498796  0.45826538     0.29300
H442        H  0.19877473  0.73384731  0.08270376     0.29300
H443        H  0.15494388  0.72677565  0.48989351     0.19900
H444        H  0.13788492  0.52996898  0.05246274     0.19900
C445        C  0.43125843  0.91426180  0.48007562    -0.05900
C446        C  0.37313083  0.90960692  0.99628887    -0.17000
C447        C  0.36817986  0.90662572  0.03099274     0.11300
C448        C  0.42192596  0.91414798  0.05091527    -0.05800
C449        C  0.47953767  0.90978314  0.03452192    -0.17100
C450        C  0.48512057  0.90658100  0.00031435     0.11300
S451        S  0.29382413  0.88541361  0.04744855    -0.32000
S452        S  0.06357772  0.89009538  0.48652415    -0.32000
H453        H  0.06167871  0.90498006  0.45308561     0.29300
H454        H  0.32113918  0.84265783  0.06946557     0.29300
H455        H  0.33083433  0.90647338  0.48194593     0.19900
H456        H  0.52223894  0.91178763  0.04861896     0.19900
C457        C  0.48008606  0.98575987  0.43757215    -0.05900
C458        C  0.97511522  0.53544407  0.46021768    -0.17000
C459        C  0.01959945  0.58273667  0.46206193     0.11300
C460        C  0.07522664  0.57777377  0.44318894    -0.05800
C461        C  0.07408971  0.53480417  0.41670842    -0.17100
C462        C  0.02489721  0.49356945  0.41202204     0.11300
S463        S  0.00185939  0.64887127  0.48803042    -0.32000
S464        S  0.51569170  0.46839610  0.36988258    -0.32000
H465        H  0.45153120  0.98011894  0.36934666     0.29300
H466        H  0.93701939  0.64519684  0.48393139     0.29300
H467        H  0.93618546  0.03694260  0.47698630     0.19900
H468        H  0.10899920  0.53514777  0.39770446     0.19900
C469        C  0.43567743  0.92899681  0.94227205    -0.02300
C470        C  0.13081567  0.62314027  0.94811760    -0.02300
C471        C  0.18429350  0.87147644  0.84430212    -0.02300
C472        C  0.38040799  0.67663263  0.84460241    -0.02300
O473        O  0.07981959  0.82380666  0.84612969    -0.57600
C474        C  0.44014584  0.69791538  0.86201926     0.75000
O475        O  0.08259059  0.72804070  0.94573053    -0.58800
C476        C  0.12607728  0.84601218  0.86139818     0.75000
C477        C  0.45910049  0.86919746  0.92534068     0.77400
Cd478      Cd  0.03249552  0.77188009  0.89501023     1.37500
O479        O  0.48510222  0.72233957  0.84640250    -0.57600
O480        O  0.46109763  0.86260662  0.89443755    -0.56400
C481        C  0.10669911  0.68199639  0.93083169     0.77400
O482        O  0.48149473  0.82395630  0.94166599    -0.58800
O483        O  0.44638819  0.69652156  0.89299276    -0.57200
O484        O  0.12618176  0.83665345  0.89229633    -0.57200
O485        O  0.09981850  0.68176451  0.89972289    -0.56400
O486        O  0.23471039  0.57520149  0.94484795    -0.57600
C487        C  0.37496408  0.95327524  0.92752516     0.75000
O488        O  0.22858285  0.97728195  0.84705045    -0.58800
C489        C  0.18950140  0.60040868  0.93003409     0.75000
C490        C  0.35568035  0.61548627  0.85885392     0.77400
Cd491      Cd  0.28038565  0.52647365  0.89468103     1.37500
O492        O  0.34579945  0.99776623  0.94127024    -0.57600
O493        O  0.37285612  0.59461107  0.88655165    -0.56400
C494        C  0.20705897  0.93044135  0.86249582     0.77400
O495        O  0.30902911  0.58861097  0.84621669    -0.58800
O496        O  0.35600714  0.93785671  0.89904280    -0.57200
O497        O  0.19319664  0.59996339  0.89888890    -0.57200
O498        O  0.21130022  0.93328971  0.89370997    -0.56400
C499        C  0.42418252  0.93092264  0.58845766    -0.02300
C500        C  0.11781968  0.62537250  0.59403905    -0.02300
C501        C  0.36805789  0.67604441  0.69837963    -0.02300
C502        C  0.17333185  0.87000285  0.69791826    -0.02300
O503        O  0.30165409  0.58334297  0.69373894    -0.57600
C504        C  0.20244160  0.92739024  0.68078308     0.75000
O505        O  0.19431858  0.54271025  0.60233508    -0.58800
C506        C  0.34380710  0.61699979  0.68098306     0.75000
C507        C  0.36433734  0.95372565  0.60527311     0.77400
Cd508      Cd  0.27220964  0.52325881  0.64436420     1.37500
O509        O  0.25467984  0.94872135  0.68970422    -0.57600
O510        O  0.35415104  0.94333949  0.63555672    -0.56400
C511        C  0.17423652  0.59560609  0.61147413     0.77400
O512        O  0.32869437  0.99388844  0.59230594    -0.58800
O513        O  0.17965789  0.95350563  0.65559802    -0.57200
O514        O  0.35642506  0.60440637  0.65112941    -0.57200
O515        O  0.20237225  0.61916454  0.63593573    -0.56400
O516        O  0.50614088  0.85345792  0.59870963    -0.57600
C517        C  0.09250714  0.68549669  0.60933156     0.75000
O518        O  0.08481734  0.79916885  0.69368403    -0.58800
C519        C  0.45273613  0.87381432  0.60633366     0.75000
C520        C  0.42442897  0.70648413  0.68050622     0.77400
Cd521      Cd  0.01971522  0.77899836  0.64465829     1.37500
O522        O  0.04504563  0.71211669  0.59718603    -0.57600
O523        O  0.45145630  0.68338347  0.65553291    -0.56400
C524        C  0.11247952  0.84714616  0.68256614     0.77400
O525        O  0.44418903  0.75992734  0.68904032    -0.58800
O526        O  0.11116292  0.70710452  0.63662640    -0.57200
O527        O  0.42746498  0.84660164  0.63067052    -0.57200
O528        O  0.09110704  0.86874986  0.65583544    -0.56400
C529        C  0.31138910  0.72059239  0.69572897    -0.05900
C530        C  0.30784005  0.76302365  0.66904777    -0.17000
C531        C  0.26021350  0.80676133  0.66664913     0.11300
C532        C  0.21691899  0.81303263  0.69280348    -0.05800
C533        C  0.21166795  0.76181974  0.71428747    -0.17100
C534        C  0.25762933  0.71591317  0.71632063     0.11300
S535        S  0.25051608  0.84283550  0.62696668    -0.32000
S536        S  0.24450484  0.65303822  0.74537272    -0.32000
H537        H  0.17918168  0.65601398  0.74483446     0.29300
H538        H  0.18647887  0.83108674  0.62558973     0.29300
H539        H  0.34054816  0.76034430  0.64876882     0.19900
H540        H  0.17107637  0.75823670  0.72969522     0.19900
C541        C  0.46770617  0.98795278  0.59296640    -0.05900
C542        C  0.00651255  0.49216330  0.62101014    -0.17000
C543        C  0.05022559  0.53999991  0.62427122     0.11300
C544        C  0.06117007  0.58097207  0.59726350    -0.05800
C545        C  0.01394093  0.58478835  0.57337251    -0.17100
C546        C  0.96612737  0.54102857  0.57175689     0.11300
S547        S  0.08231167  0.55147945  0.66489210    -0.32000
S548        S  0.40412586  0.55625374  0.54285022    -0.32000
H549        H  0.40969446  0.12175479  0.54368335     0.29300
H550        H  0.06552865  0.61470122  0.66634254     0.29300
H551        H  0.00112040  0.95962327  0.64133549     0.19900
H552        H  0.01493351  0.62225089  0.55548722     0.19900
C553        C  0.39379692  0.67404710  0.80656109    -0.05900
C554        C  0.39464378  0.61662354  0.78910784    -0.17000
C555        C  0.39441178  0.61408830  0.75418156     0.11300
C556        C  0.38667260  0.67003923  0.73557026    -0.05800
C557        C  0.39371056  0.72651425  0.75305266    -0.17100
C558        C  0.40126428  0.72932192  0.78715219     0.11300
S559        S  0.40870763  0.53885062  0.73580083    -0.32000
S560        S  0.42258375  0.80635810  0.80191014    -0.32000
H561        H  0.40503812  0.80376691  0.83498929     0.29300
H562        H  0.44384127  0.56317364  0.70934892     0.29300
H563        H  0.39661266  0.57298674  0.80258448     0.19900
H564        H  0.39085745  0.77061933  0.74007813     0.19900
C565        C  0.17922742  0.88780619  0.80667240    -0.05900
C566        C  0.12124255  0.89399588  0.79038495    -0.17000
C567        C  0.11621395  0.89412432  0.75552654     0.11300
C568        C  0.17031087  0.88555315  0.73568847    -0.05800
C569        C  0.22773825  0.89000074  0.75213065    -0.17100
C570        C  0.23312631  0.89451923  0.78629402     0.11300
S571        S  0.04033621  0.91020522  0.73886666    -0.32000
S572        S  0.31194223  0.90995570  0.79968281    -0.32000
H573        H  0.30949426  0.90234740  0.83372036     0.29300
H574        H  0.06330427  0.94770313  0.71303719     0.29300
H575        H  0.07914269  0.90016608  0.80457443     0.19900
H576        H  0.27053036  0.88700906  0.73812646     0.19900
C577        C  0.23029617  0.81582383  0.84812453    -0.05900
C578        C  0.27482616  0.81430207  0.87362630    -0.17000
C579        C  0.31762593  0.76583376  0.87675776     0.11300
C580        C  0.32466348  0.72195535  0.85048571    -0.05800
C581        C  0.27389673  0.71745483  0.82873028    -0.17100
C582        C  0.22556364  0.76060853  0.82884145     0.11300
S583        S  0.34532646  0.75576606  0.91835325    -0.32000
S584        S  0.15769033  0.73922048  0.80589799    -0.32000
H585        H  0.17728997  0.77730857  0.78026475     0.29300
H586        H  0.33330165  0.69125250  0.91877737     0.29300
H587        H  0.27398824  0.84774916  0.89334398     0.19500
H588        H  0.27138959  0.67899087  0.81152506     0.19900
C589        C  0.14487888  0.62620490  0.98593158    -0.05900
C590        C  0.14872714  0.68354929  0.50326790    -0.17000
C591        C  0.14671688  0.68615710  0.53817707     0.11300
C592        C  0.13628460  0.63059807  0.55672917    -0.05800
C593        C  0.14204426  0.57392181  0.53940684    -0.17100
C594        C  0.15046751  0.57084675  0.50545221     0.11300
S595        S  0.16402887  0.76041825  0.55681176    -0.32000
S596        S  0.17268959  0.49369141  0.99138847    -0.32000
H597        H  0.15597843  0.49498779  0.95826569     0.29300
H598        H  0.19877517  0.73384753  0.58270386     0.29300
H599        H  0.15494363  0.72677538  0.98989363     0.19900
H600        H  0.13788575  0.52996925  0.55246267     0.19900
C601        C  0.43125794  0.91426136  0.98007559    -0.05900
C602        C  0.37313129  0.90960757  0.49628894    -0.17000
C603        C  0.36818037  0.90662648  0.53099282     0.11300
C604        C  0.42192652  0.91414856  0.55091531    -0.05800
C605        C  0.47953824  0.90978352  0.53452194    -0.17100
C606        C  0.48512104  0.90658130  0.50031435     0.11300
S607        S  0.29382454  0.88541444  0.54744861    -0.32000
S608        S  0.06357748  0.89009571  0.98652420    -0.32000
H609        H  0.06167837  0.90497942  0.95308554     0.29300
H610        H  0.32113953  0.84265857  0.56946560     0.29300
H611        H  0.33083381  0.90647276  0.98194578     0.19900
H612        H  0.52223948  0.91178774  0.54861895     0.19900
C613        C  0.48008578  0.98575941  0.93757220    -0.05900
C614        C  0.97511503  0.53544358  0.96021780    -0.17000
C615        C  0.01959930  0.58273615  0.96206212     0.11300
C616        C  0.07522643  0.57777343  0.94318904    -0.05800
C617        C  0.07408957  0.53480376  0.91670855    -0.17100
C618        C  0.02489705  0.49356901  0.91202215     0.11300
S619        S  0.00185922  0.64887063  0.98803071    -0.32000
S620        S  0.51569154  0.46839552  0.86988267    -0.32000
H621        H  0.45153109  0.98011838  0.86934670     0.29300
H622        H  0.93701922  0.64519623  0.98393165     0.29300
H623        H  0.93618498  0.03694204  0.97698634     0.19900
H624        H  0.10899913  0.53514734  0.89770463     0.19900
C625        C  0.93567881  0.42899802  0.44227254    -0.02300
C626        C  0.63081451  0.12314002  0.44811775    -0.02300
C627        C  0.68429468  0.37147630  0.34430117    -0.02300
C628        C  0.88040784  0.17663217  0.34460352    -0.02300
O629        O  0.57982235  0.32380286  0.34612856    -0.57600
C630        C  0.94014558  0.19791593  0.36202030     0.75000
O631        O  0.58258830  0.22803989  0.44573091    -0.58800
C632        C  0.62607805  0.34601241  0.36139716     0.75000
C633        C  0.95910124  0.36919848  0.42534115     0.77400
Cd634      Cd  0.53249629  0.27188028  0.39500986     1.37500
O635        O  0.98510157  0.22234056  0.34640338    -0.57600
O636        O  0.96109697  0.36260708  0.39443800    -0.56400
C637        C  0.60669887  0.18199672  0.43083203     0.77400
O638        O  0.98149647  0.32395784  0.44166645    -0.58800
O639        O  0.94638820  0.19652258  0.39299380    -0.57200
O640        O  0.62618091  0.33665697  0.39229559    -0.57200
O641        O  0.59982078  0.18176621  0.39972307    -0.56400
O642        O  0.73470875  0.07519999  0.44484809    -0.57600
C643        C  0.87496562  0.45327696  0.42752571     0.75000
O644        O  0.72858723  0.47728087  0.34704928    -0.58800
C645        C  0.68950009  0.10040776  0.43003423     0.75000
C646        C  0.85568002  0.11548602  0.35885516     0.77400
Cd647      Cd  0.78038426  0.02647244  0.39468127     1.37500
O648        O  0.84580354  0.49777083  0.44126966    -0.57600
O649        O  0.87285559  0.09461055  0.38655285    -0.56400
C650        C  0.70706118  0.43044130  0.36249466     0.77400
O651        O  0.80902880  0.08861090  0.34621777    -0.58800
O652        O  0.85600558  0.43785453  0.39904455    -0.57200
O653        O  0.69319549  0.09996254  0.39888904    -0.57200
O654        O  0.71130097  0.43329062  0.39370886    -0.56400
C655        C  0.92418160  0.43092377  0.08845777    -0.02300
C656        C  0.61781802  0.12537065  0.09403937    -0.02300
C657        C  0.86805642  0.17604183  0.19838043    -0.02300
C658        C  0.67333056  0.37000028  0.19791693    -0.02300
O659        O  0.80165264  0.08334068  0.19373867    -0.57600
C660        C  0.70244032  0.42738812  0.18078196     0.75000
O661        O  0.69431889  0.04270995  0.10233446    -0.58800
C662        C  0.84380633  0.11699740  0.18098346     0.75000
C663        C  0.86433633  0.45372650  0.10527303     0.77400
Cd664      Cd  0.77220976  0.02325840  0.14436349     1.37500
O665        O  0.75467859  0.44871917  0.18970307    -0.57600
O666        O  0.85415324  0.44334499  0.13555738    -0.56400
C667        C  0.67423536  0.09560482  0.11147421     0.77400
O668        O  0.82869024  0.49388528  0.09230474    -0.58800
O669        O  0.67965646  0.45350430  0.15559719    -0.57200
O670        O  0.85642562  0.10440425  0.15112994    -0.57200
O671        O  0.70237039  0.11916291  0.13593611    -0.56400
O672        O  0.00613860  0.35345701  0.09870956    -0.57600
C673        C  0.59250452  0.18549472  0.10933173     0.75000
O674        O  0.58481468  0.29916793  0.19368314    -0.58800
C675        C  0.95273482  0.37381528  0.10633411     0.75000
C676        C  0.92442826  0.20648153  0.18050735     0.77400
Cd677      Cd  0.51971241  0.27899723  0.14465797     1.37500
O678        O  0.54504177  0.21211310  0.09718654    -0.57600
O679        O  0.95145390  0.18338260  0.15553306    -0.56400
C680        C  0.61247762  0.34714456  0.18256502     0.77400
O681        O  0.94418969  0.25992381  0.18904221    -0.58800
O682        O  0.61116125  0.20710436  0.13662598    -0.57200
O683        O  0.92746426  0.34660404  0.13067163    -0.57200
O684        O  0.59110515  0.36874837  0.15583433    -0.56400
C685        C  0.81138751  0.22058985  0.19572915    -0.05900
C686        C  0.80784124  0.26302282  0.16904853    -0.17000
C687        C  0.76021464  0.30676026  0.16664910     0.11300
C688        C  0.71691694  0.31302945  0.19280188    -0.05800
C689        C  0.71166275  0.26181450  0.21428439    -0.17100
C690        C  0.75762525  0.21590884  0.21631889     0.11300
S691        S  0.75052114  0.34283591  0.12696676    -0.32000
S692        S  0.74449929  0.15303361  0.24537075    -0.32000
H693        H  0.67917612  0.15600910  0.24483170     0.29300
H694        H  0.68648276  0.33109364  0.12558934     0.29300
H695        H  0.84055099  0.26034501  0.14877057     0.19900
H696        H  0.67106867  0.25822975  0.22969006     0.19900
C697        C  0.96770525  0.48795437  0.09296633    -0.05900
C698        C  0.50651138  0.99216131  0.12101057    -0.17000
C699        C  0.55022454  0.03999778  0.12427164     0.11300
C700        C  0.56116904  0.08096969  0.09726386    -0.05800
C701        C  0.51393993  0.08478605  0.07337291    -0.17100
C702        C  0.46612690  0.04102612  0.07175702     0.11300
S703        S  0.58231024  0.05147806  0.16489253    -0.32000
S704        S  0.90412754  0.05625252  0.04284988    -0.32000
H705        H  0.90969819  0.62175533  0.04367848     0.29300
H706        H  0.56552815  0.11470012  0.16634248     0.29300
H707        H  0.50111907  0.45962232  0.14133458     0.19900
H708        H  0.51493209  0.12224879  0.05548785     0.19900
C709        C  0.89379667  0.17404575  0.30656220    -0.05900
C710        C  0.89464150  0.11662189  0.28910923    -0.17000
C711        C  0.89440759  0.11408577  0.25418302     0.11300
C712        C  0.88666954  0.17003655  0.23557134    -0.05800
C713        C  0.89370813  0.22651184  0.25305349    -0.17100
C714        C  0.90126354  0.22932011  0.28715291     0.11300
S715        S  0.90869876  0.03884646  0.23580315    -0.32000
S716        S  0.92258355  0.30635657  0.30191029    -0.32000
H717        H  0.90503561  0.30376676  0.33498916     0.29300
H718        H  0.94383475  0.06316625  0.20935131     0.29300
H719        H  0.89660990  0.07298525  0.30258608     0.19900
H720        H  0.89085471  0.27061668  0.24007884     0.19900
C721        C  0.67922843  0.38780480  0.30667117    -0.05900
C722        C  0.62124322  0.39399280  0.29038393    -0.17000
C723        C  0.61621392  0.39412059  0.25552557     0.11300
C724        C  0.67031043  0.38554984  0.23568722    -0.05800
C725        C  0.72773823  0.38999795  0.25212906    -0.17100
C726        C  0.73312682  0.39451776  0.28629245     0.11300
S727        S  0.54033555  0.41020103  0.23886632    -0.32000
S728        S  0.81194262  0.40995567  0.29968083    -0.32000
H729        H  0.80949571  0.40234103  0.33371805     0.29300
H730        H  0.56330251  0.44770032  0.21303712     0.29300
H731        H  0.57914369  0.40016294  0.30457354     0.19900
H732        H  0.77052995  0.38700590  0.23812475     0.19900
C733        C  0.73029647  0.31582329  0.34812430    -0.05900
C734        C  0.77482384  0.31430016  0.37362734    -0.17000
C735        C  0.81762394  0.26583201  0.37675877     0.11300
C736        C  0.82466294  0.22195452  0.35048644    -0.05800
C737        C  0.77389739  0.21745459  0.32873007    -0.17100
C738        C  0.72556492  0.26060897  0.32884073     0.11300
S739        S  0.84532460  0.25576449  0.41835422    -0.32000
S740        S  0.65769679  0.23922841  0.30589155    -0.32000
H741        H  0.67732621  0.27730067  0.28025799     0.29300
H742        H  0.83329760  0.19125134  0.41877865     0.29300
H743        H  0.77398397  0.34774594  0.39334535     0.19500
H744        H  0.77139142  0.17899205  0.31152405     0.19900
C745        C  0.64487781  0.12620410  0.48593178    -0.05900
C746        C  0.64872581  0.18354797  0.00326841    -0.17000
C747        C  0.64671548  0.18615532  0.03817763     0.11300
C748        C  0.63628276  0.13059624  0.05672950    -0.05800
C749        C  0.64204228  0.07392006  0.03940704    -0.17100
C750        C  0.65046553  0.07084537  0.00545240     0.11300
S751        S  0.66402822  0.26041603  0.05681269    -0.32000
S752        S  0.67268674  0.99369008  0.49138800    -0.32000
H753        H  0.65597550  0.99498713  0.45826522     0.29300
H754        H  0.69877327  0.23384479  0.08270512     0.29300
H755        H  0.65494255  0.22677450  0.48989419     0.19900
H756        H  0.63788372  0.02996740  0.05246276     0.19900
C757        C  0.93125907  0.41426267  0.48007596    -0.05900
C758        C  0.87313135  0.40960775  0.99628896    -0.17000
C759        C  0.86817988  0.40662663  0.03099278     0.11300
C760        C  0.92192570  0.41414916  0.05091553    -0.05800
C761        C  0.97953771  0.40978439  0.03452247    -0.17100
C762        C  0.98512106  0.40658218  0.00031494     0.11300
S763        S  0.79382383  0.38541384  0.04744792    -0.32000
S764        S  0.56357789  0.39009525  0.48652458    -0.32000
H765        H  0.56167962  0.40498028  0.45308608     0.29300
H766        H  0.82113874  0.34265661  0.06946415     0.29300
H767        H  0.83083488  0.40647495  0.48194570     0.19900
H768        H  0.02223859  0.41178918  0.04861962     0.19900
C769        C  0.98008786  0.48576001  0.43757274    -0.05900
C770        C  0.47511332  0.03544345  0.46021736    -0.17000
C771        C  0.51959791  0.08273569  0.46206228     0.11300
C772        C  0.57522481  0.07777374  0.44318891    -0.05800
C773        C  0.57408727  0.03480541  0.41670784    -0.17100
C774        C  0.52489522  0.99357020  0.41202136     0.11300
S775        S  0.50185900  0.14886847  0.48803230    -0.32000
S776        S  0.01569124  0.96839437  0.36988291    -0.32000
H777        H  0.95153193  0.48011640  0.36934813     0.29300
H778        H  0.43701880  0.14519470  0.48393408     0.29300
H779        H  0.43618707  0.53694175  0.47698661     0.19900
H780        H  0.60899624  0.03515011  0.39770357     0.19900
C781        C  0.93567843  0.42899763  0.94227259    -0.02300
C782        C  0.63081424  0.12313971  0.94811784    -0.02300
C783        C  0.68429428  0.37147606  0.84430142    -0.02300
C784        C  0.88040744  0.17663216  0.84460368    -0.02300
O785        O  0.57982259  0.32380136  0.84612874    -0.57600
C786        C  0.94014517  0.19791594  0.86202042     0.75000
O787        O  0.58258756  0.22803935  0.94573107    -0.58800
C788        C  0.62607759  0.34601218  0.86139741     0.75000
C789        C  0.95910086  0.36919805  0.92534123     0.77400
Cd790      Cd  0.53249584  0.27188002  0.89501002     1.37500
O791        O  0.98510080  0.22234124  0.84640354    -0.57600
O792        O  0.96109646  0.36260658  0.89443808    -0.56400
C793        C  0.60669865  0.18199650  0.93083215     0.77400
O794        O  0.98149625  0.32395751  0.94166657    -0.58800
O795        O  0.94638812  0.19652195  0.89299390    -0.57200
O796        O  0.62617990  0.33665784  0.89229595    -0.57200
O797        O  0.59982103  0.18176633  0.89972316    -0.56400
O798        O  0.73470858  0.07519991  0.94484811    -0.57600
C799        C  0.87496527  0.45327671  0.92752573     0.75000
O800        O  0.72858653  0.47728071  0.84704944    -0.58800
C801        C  0.68949981  0.10040755  0.93003429     0.75000
C802        C  0.85567975  0.11548590  0.85885524     0.77400
Cd803      Cd  0.78038398  0.02647228  0.89468129     1.37500
O804        O  0.84580336  0.49777077  0.94126965    -0.57600
O805        O  0.87285537  0.09461036  0.88655292    -0.56400
C806        C  0.70706073  0.43044108  0.86249485     0.77400
O807        O  0.80902858  0.08861074  0.84621783    -0.58800
O808        O  0.85600509  0.43785420  0.89904460    -0.57200
O809        O  0.69319508  0.09996228  0.89888910    -0.57200
O810        O  0.71130083  0.43329035  0.89370902    -0.56400
C811        C  0.92418221  0.43092417  0.58845773    -0.02300
C812        C  0.61781883  0.12537078  0.59403939    -0.02300
C813        C  0.86805655  0.17604176  0.69838055    -0.02300
C814        C  0.67333060  0.37000004  0.69791687    -0.02300
O815        O  0.80165324  0.08334024  0.69373882    -0.57600
C816        C  0.70244043  0.42738804  0.68078202     0.75000
O817        O  0.69431966  0.04271005  0.60233450    -0.58800
C818        C  0.84380662  0.11699730  0.68098356     0.75000
C819        C  0.86433706  0.45372700  0.60527312     0.77400
Cd820      Cd  0.77221017  0.02325841  0.64436367     1.37500
O821        O  0.75467870  0.44871901  0.68970319    -0.57600
O822        O  0.85415396  0.44334521  0.63555744    -0.56400
C823        C  0.67423612  0.09560491  0.61147427     0.77400
O824        O  0.82869102  0.49388595  0.59230495    -0.58800
O825        O  0.67965665  0.45350439  0.65559726    -0.57200
O826        O  0.85642570  0.10440448  0.65112998    -0.57200
O827        O  0.70237101  0.11916293  0.63593624    -0.56400
O828        O  0.00613896  0.35345696  0.59870936    -0.57600
C829        C  0.59250511  0.18549473  0.60933185     0.75000
O830        O  0.58481410  0.29916856  0.69368324    -0.58800
C831        C  0.95273535  0.37381553  0.60633400     0.75000
C832        C  0.92442859  0.20648117  0.68050746     0.77400
Cd833      Cd  0.51971258  0.27899710  0.64465800     1.37500
O834        O  0.54504248  0.21211322  0.59718659    -0.57600
O835        O  0.95145348  0.18338259  0.65553284    -0.56400
C836        C  0.61247769  0.34714461  0.68256489     0.77400
O837        O  0.94419073  0.25992303  0.68904255    -0.58800
O838        O  0.61116148  0.20710410  0.63662624    -0.57200
O839        O  0.92746481  0.34660437  0.63067155    -0.57200
O840        O  0.59110599  0.36874785  0.65583390    -0.56400
C841        C  0.81138766  0.22058981  0.69572917    -0.05900
C842        C  0.80784222  0.26302362  0.66904890    -0.17000
C843        C  0.76021547  0.30676078  0.66664928     0.11300
C844        C  0.71691685  0.31302914  0.69280167    -0.05800
C845        C  0.71166185  0.26181341  0.71428358    -0.17100
C846        C  0.75762469  0.21590809  0.71631840     0.11300
S847        S  0.75052233  0.34283628  0.62696686    -0.32000
S848        S  0.74449868  0.15303292  0.74537032    -0.32000
H849        H  0.67917547  0.15600745  0.74483061     0.29300
H850        H  0.68648404  0.33109359  0.62558918     0.29300
H851        H  0.84055257  0.26034651  0.64877118     0.19900
H852        H  0.67106679  0.25822788  0.72968863     0.19900
C853        C  0.96770594  0.48795470  0.59296627    -0.05900
C854        C  0.50651222  0.99216153  0.62101055    -0.17000
C855        C  0.55022535  0.03999801  0.62427161     0.11300
C856        C  0.56116996  0.08096975  0.59726379    -0.05800
C857        C  0.51394091  0.08478614  0.57337282    -0.17100
C858        C  0.46612765  0.04102649  0.57175704     0.11300
S859        S  0.58231055  0.05147878  0.66489257    -0.32000
S860        S  0.90412818  0.05625326  0.54285013    -0.32000
H861        H  0.90969885  0.62175603  0.54367891     0.29300
H862        H  0.56552654  0.11470035  0.66634261     0.29300
H863        H  0.50111967  0.45962274  0.64133460     0.19900
H864        H  0.51493311  0.12224889  0.55548773     0.19900
C865        C  0.89379621  0.17404586  0.80656234    -0.05900
C866        C  0.89464140  0.11662197  0.78910938    -0.17000
C867        C  0.89440764  0.11408589  0.75418316     0.11300
C868        C  0.88666941  0.17003660  0.73557148    -0.05800
C869        C  0.89370763  0.22651193  0.75305361    -0.17100
C870        C  0.90126278  0.22932024  0.78715305     0.11300
S871        S  0.90869868  0.03884662  0.73580326    -0.32000
S872        S  0.92258200  0.30635692  0.80191041    -0.32000
H873        H  0.90503468  0.30376685  0.83498936     0.29300
H874        H  0.94383505  0.06316639  0.70935156     0.29300
H875        H  0.89660994  0.07298537  0.80258620     0.19900
H876        H  0.89085420  0.27061671  0.74007892     0.19900
C877        C  0.67922808  0.38780426  0.80667131    -0.05900
C878        C  0.62124291  0.39399165  0.79038397    -0.17000
C879        C  0.61621377  0.39411980  0.75552560     0.11300
C880        C  0.67031037  0.38554922  0.73568725    -0.05800
C881        C  0.72773808  0.38999746  0.75212918    -0.17100
C882        C  0.73312649  0.39451762  0.78629261     0.11300
S883        S  0.54033542  0.41020045  0.73886636    -0.32000
S884        S  0.81194194  0.40995692  0.79968110    -0.32000
H885        H  0.80949521  0.40234000  0.83371819     0.29300
H886        H  0.56330246  0.44769999  0.71303728     0.29300
H887        H  0.57914322  0.40016135  0.80457353     0.19900
H888        H  0.77052989  0.38700553  0.73812490     0.19900
C889        C  0.73029607  0.31582316  0.84812476    -0.05900
C890        C  0.77482307  0.31429967  0.87362797    -0.17000
C891        C  0.81762339  0.26583160  0.87675923     0.11300
C892        C  0.82466253  0.22195441  0.85048674    -0.05800
C893        C  0.77389723  0.21745484  0.82873024    -0.17100
C894        C  0.72556484  0.26060922  0.82884100     0.11300
S895        S  0.84532477  0.25576395  0.91835453    -0.32000
S896        S  0.65769881  0.23923158  0.80588960    -0.32000
H897        H  0.67734070  0.27729723  0.78025592     0.29300
H898        H  0.83329747  0.19125085  0.91877898     0.29300
H899        H  0.77398291  0.34774514  0.89334613     0.19500
H900        H  0.77139162  0.17899281  0.81152384     0.19900
C901        C  0.64487758  0.12620386  0.98593184    -0.05900
C902        C  0.64872614  0.18354820  0.50326839    -0.17000
C903        C  0.64671609  0.18615545  0.53817763     0.11300
C904        C  0.63628361  0.13059639  0.55672950    -0.05800
C905        C  0.64204305  0.07392024  0.53940700    -0.17100
C906        C  0.65046588  0.07084554  0.50545232     0.11300
S907        S  0.66402857  0.26041608  0.55681275    -0.32000
S908        S  0.67268708  0.99369014  0.99138809    -0.32000
H909        H  0.65597536  0.99498699  0.95826537     0.29300
H910        H  0.69877360  0.23384485  0.58270520     0.29300
H911        H  0.65494239  0.22677421  0.98989417     0.19900
H912        H  0.63788463  0.02996757  0.55246272     0.19900
C913        C  0.93125872  0.41426224  0.98007601    -0.05900
C914        C  0.87313176  0.40960868  0.49628897    -0.17000
C915        C  0.86818031  0.40662746  0.53099276     0.11300
C916        C  0.92192624  0.41414969  0.55091548    -0.05800
C917        C  0.97953816  0.40978463  0.53452236    -0.17100
C918        C  0.98512145  0.40658222  0.50031486     0.11300
S919        S  0.79382419  0.38541511  0.54744797    -0.32000
S920        S  0.56357770  0.39009600  0.98652483    -0.32000
H921        H  0.56167912  0.40497922  0.95308612     0.29300
H922        H  0.82113893  0.34265737  0.56946399     0.29300
H923        H  0.83083469  0.40647374  0.98194569     0.19900
H924        H  0.02223921  0.41178928  0.54861951     0.19900
C925        C  0.98008759  0.48575960  0.93757280    -0.05900
C926        C  0.47511310  0.03544295  0.96021743    -0.17000
C927        C  0.51959768  0.08273518  0.96206238     0.11300
C928        C  0.57522458  0.07777331  0.94318899    -0.05800
C929        C  0.57408713  0.03480482  0.91670799    -0.17100
C930        C  0.52489505  0.99356967  0.91202146     0.11300
S931        S  0.50185878  0.14886789  0.98803240    -0.32000
S932        S  0.01569145  0.96839381  0.86988299    -0.32000
H933        H  0.95153171  0.48011621  0.86934824     0.29300
H934        H  0.43701859  0.14519414  0.98393412     0.29300
H935        H  0.43618678  0.53694132  0.97698663     0.19900
H936        H  0.60899624  0.03514937  0.89770375     0.19900
C937        C  0.93567782  0.92899717  0.44227258    -0.02300
C938        C  0.63081538  0.62314028  0.44811750    -0.02300
C939        C  0.68429462  0.87147589  0.34430074    -0.02300
C940        C  0.88040895  0.67663172  0.34460280    -0.02300
O941        O  0.57982103  0.82380532  0.34612830    -0.57600
C942        C  0.94014652  0.69791477  0.36201992     0.75000
O943        O  0.58259082  0.72804108  0.44573015    -0.58800
C944        C  0.62607839  0.84601157  0.36139677     0.75000
C945        C  0.95910020  0.86919735  0.42534135     0.77400
Cd946      Cd  0.53249628  0.77188033  0.39500935     1.37500
O947        O  0.98510402  0.72233705  0.34640322    -0.57600
O948        O  0.96109680  0.86260612  0.39443823    -0.56400
C949        C  0.60669917  0.68199651  0.43083148     0.77400
O950        O  0.98149451  0.82395631  0.44166675    -0.58800
O951        O  0.94638750  0.69652312  0.39299353    -0.57200
O952        O  0.62618260  0.83665348  0.39229497    -0.57200
O953        O  0.59981877  0.68176451  0.39972266    -0.56400
O954        O  0.73471042  0.57520192  0.44484817    -0.57600
C955        C  0.87496442  0.95327567  0.42752571     0.75000
O956        O  0.72858619  0.97728069  0.34704932    -0.58800
C957        C  0.68950126  0.60040858  0.43003418     0.75000
C958        C  0.85568089  0.61548569  0.35885450     0.77400
Cd959      Cd  0.78038538  0.52647328  0.39468125     1.37500
O960        O  0.84580145  0.99776871  0.44126989    -0.57600
O961        O  0.87285636  0.59461070  0.38655231    -0.56400
C962        C  0.70706023  0.93044086  0.36249454     0.77400
O963        O  0.80902970  0.58861039  0.34621721    -0.58800
O964        O  0.85600541  0.93785433  0.39904418    -0.57200
O965        O  0.69319640  0.59996263  0.39888900    -0.57200
O966        O  0.71129953  0.93328987  0.39370876    -0.56400
C967        C  0.92418242  0.93092230  0.08845805    -0.02300
C968        C  0.61781774  0.62537130  0.09403896    -0.02300
C969        C  0.86805762  0.67604343  0.19837988    -0.02300
C970        C  0.67333171  0.87000242  0.19791721    -0.02300
O971        O  0.80165335  0.58334233  0.19373846    -0.57600
C972        C  0.70244142  0.92738964  0.18078191     0.75000
O973        O  0.69431826  0.54271043  0.10233439    -0.58800
C974        C  0.84380640  0.61699940  0.18098282     0.75000
C975        C  0.86433708  0.95372536  0.10527326     0.77400
Cd976      Cd  0.77220879  0.52325896  0.14436362     1.37500
O977        O  0.75467951  0.94872097  0.18970312    -0.57600
O978        O  0.85415028  0.94333916  0.13555682    -0.56400
C979        C  0.67423489  0.59560545  0.11147396     0.77400
O980        O  0.82869430  0.99388810  0.09230584    -0.58800
O981        O  0.67965764  0.95350494  0.15559685    -0.57200
O982        O  0.85642396  0.60440695  0.15112901    -0.57200
O983        O  0.70236975  0.61916359  0.13593592    -0.56400
O984        O  0.00614012  0.85345647  0.09870972    -0.57600
C985        C  0.59250499  0.68549561  0.10933126     0.75000
O986        O  0.58481687  0.79916878  0.19368317    -0.58800
C987        C  0.95273610  0.87381415  0.10633431     0.75000
C988        C  0.92442916  0.70648297  0.18050663     0.77400
Cd989      Cd  0.51971432  0.77899862  0.14465752     1.37500
O990        O  0.54504304  0.71211504  0.09718586    -0.57600
O991        O  0.95145655  0.68338251  0.15553329    -0.56400
C992        C  0.61247916  0.84714595  0.18256521     0.77400
O993        O  0.94418937  0.75992607  0.18904081    -0.58800
O994        O  0.61116175  0.70710468  0.13662564    -0.57200
O995        O  0.92746594  0.84660306  0.13067196    -0.57200
O996        O  0.59110638  0.86874989  0.15583460    -0.56400
C997        C  0.81138919  0.72059198  0.19572922    -0.05900
C998        C  0.80784082  0.76302340  0.16904799    -0.17000
C999        C  0.76021393  0.80676068  0.16664887     0.11300
C1000       C  0.71691880  0.81303195  0.19280281    -0.05800
C1001       C  0.71166734  0.76181917  0.21428691    -0.17100
C1002       C  0.75762871  0.71591246  0.21632032     0.11300
S1003       S  0.75051640  0.84283371  0.12696613    -0.32000
S1004       S  0.74450286  0.65303658  0.24537173    -0.32000
H1005       H  0.67917975  0.65601408  0.24483394     0.29300
H1006       H  0.68647896  0.83108594  0.12558954     0.29300
H1007       H  0.84054923  0.76034417  0.14876930     0.19900
H1008       H  0.67107542  0.75823615  0.22969427     0.19900
C1009       C  0.96770599  0.98795266  0.09296666    -0.05900
C1010       C  0.50651153  0.49216124  0.12100996    -0.17000
C1011       C  0.55022434  0.53999802  0.12427106     0.11300
C1012       C  0.56116845  0.58097046  0.09726343    -0.05800
C1013       C  0.51393928  0.58478652  0.07337247    -0.17100
C1014       C  0.46612598  0.54102654  0.07175679     0.11300
S1015       S  0.58231053  0.55147732  0.16489191    -0.32000
S1016       S  0.90412598  0.55625445  0.04285012    -0.32000
H1017       H  0.90969630  0.12175359  0.04368080     0.29300
H1018       H  0.56553147  0.61470015  0.16634173     0.29300
H1019       H  0.50111818  0.95962274  0.14133532     0.19900
H1020       H  0.51493157  0.62224919  0.05548725     0.19900
C1021       C  0.89379838  0.67404542  0.30656152    -0.05900
C1022       C  0.89464262  0.61662181  0.28910830    -0.17000
C1023       C  0.89440936  0.61408632  0.25418204     0.11300
C1024       C  0.88667203  0.67003748  0.23557062    -0.05800
C1025       C  0.89371212  0.72651235  0.25305301    -0.17100
C1026       C  0.90126695  0.72931990  0.28715250     0.11300
S1027       S  0.90870044  0.53884740  0.23580170    -0.32000
S1028       S  0.92258810  0.80635581  0.30191033    -0.32000
H1029       H  0.90503939  0.80376582  0.33498907     0.29300
H1030       H  0.94383567  0.56316765  0.20934969     0.29300
H1031       H  0.89661001  0.57298488  0.30258497     0.19900
H1032       H  0.89085964  0.77061746  0.24007863     0.19900
C1033       C  0.67922839  0.88780577  0.30667109    -0.05900
C1034       C  0.62124331  0.89399574  0.29038384    -0.17000
C1035       C  0.61621431  0.89412439  0.25552546     0.11300
C1036       C  0.67031100  0.88555332  0.23568729    -0.05800
C1037       C  0.72773862  0.89000093  0.25212926    -0.17100
C1038       C  0.73312710  0.89451869  0.28629262     0.11300
S1039       S  0.54033635  0.91020533  0.23886584    -0.32000
S1040       S  0.81194382  0.90995165  0.29968126    -0.32000
H1041       H  0.80949555  0.90234556  0.33371895     0.29300
H1042       H  0.56330406  0.94770281  0.21303613     0.29300
H1043       H  0.57914367  0.90016581  0.30457344     0.19900
H1044       H  0.77053049  0.88700891  0.23812502     0.19900
C1045       C  0.73029713  0.81582317  0.34812323    -0.05900
C1046       C  0.77482596  0.81430129  0.37362551    -0.17000
C1047       C  0.81762566  0.76583307  0.37675739     0.11300
C1048       C  0.82466429  0.72195463  0.35048542    -0.05800
C1049       C  0.77389830  0.71745405  0.32872947    -0.17100
C1050       C  0.72556521  0.76060782  0.32884013     0.11300
S1051       S  0.84532407  0.75576555  0.41835327    -0.32000
S1052       S  0.65769231  0.73921928  0.30589648    -0.32000
H1053       H  0.67729041  0.77730929  0.28026373     0.29300
H1054       H  0.83329879  0.69125209  0.41877737     0.29300
H1055       H  0.77398683  0.84774809  0.39334326     0.19500
H1056       H  0.77139169  0.67898995  0.31152427     0.19900
C1057       C  0.64487834  0.62620449  0.48593150    -0.05900
C1058       C  0.64872593  0.68354848  0.00326807    -0.17000
C1059       C  0.64671555  0.68615596  0.03817723     0.11300
C1060       C  0.63628271  0.63059687  0.05672914    -0.05800
C1061       C  0.64204249  0.57392070  0.03940676    -0.17100
C1062       C  0.65046624  0.57084589  0.00545219     0.11300
S1063       S  0.66402855  0.76041666  0.05681217    -0.32000
S1064       S  0.67268781  0.49369043  0.49138780    -0.32000
H1065       H  0.65597891  0.49498770  0.45826470     0.29300
H1066       H  0.69877376  0.73384523  0.08270448     0.29300
H1067       H  0.65494320  0.72677491  0.48989375     0.19900
H1068       H  0.63788385  0.52996802  0.05246253     0.19900
C1069       C  0.93125862  0.91426230  0.48007612    -0.05900
C1070       C  0.87313103  0.90960824  0.99628933    -0.17000
C1071       C  0.86818006  0.90662675  0.03099315     0.11300
C1072       C  0.92192626  0.91414797  0.05091572    -0.05800
C1073       C  0.97953803  0.90978298  0.03452236    -0.17100
C1074       C  0.98512081  0.90658103  0.00031475     0.11300
S1075       S  0.79382363  0.88541629  0.04744862    -0.32000
S1076       S  0.56357740  0.89009494  0.48652385    -0.32000
H1077       H  0.56167888  0.90498191  0.45308559     0.29300
H1078       H  0.82113765  0.84265815  0.06946469     0.29300
H1079       H  0.83083439  0.90647575  0.48194645     0.19900
H1080       H  0.02223914  0.91178724  0.04861932     0.19900
C1081       C  0.98008654  0.98575947  0.43757251    -0.05900
C1082       C  0.47511491  0.53544331  0.46021749    -0.17000
C1083       C  0.51959893  0.58273608  0.46206181     0.11300
C1084       C  0.57522617  0.57777352  0.44318881    -0.05800
C1085       C  0.57408948  0.53480396  0.41670830    -0.17100
C1086       C  0.52489724  0.49356908  0.41202181     0.11300
S1087       S  0.50185852  0.64887044  0.48803042    -0.32000
S1088       S  0.01569138  0.46839571  0.36988299    -0.32000
H1089       H  0.95153125  0.98011175  0.36934791     0.29300
H1090       H  0.43701854  0.64519594  0.48393118     0.29300
H1091       H  0.43618533  0.03694155  0.47698650     0.19900
H1092       H  0.60899901  0.53514772  0.39770433     0.19900
C1093       C  0.93567745  0.92899683  0.94227254    -0.02300
C1094       C  0.63081515  0.62314000  0.94811759    -0.02300
C1095       C  0.68429422  0.87147558  0.84430100    -0.02300
C1096       C  0.88040854  0.67663174  0.84460293    -0.02300
O1097       O  0.57982134  0.82380374  0.84612840    -0.57600
C1098       C  0.94014612  0.69791473  0.86202002     0.75000
O1099       O  0.58259014  0.72804054  0.94573029    -0.58800
C1100       C  0.62607794  0.84601130  0.86139697     0.75000
C1101       C  0.95909987  0.86919709  0.92534137     0.77400
Cd1102     Cd  0.53249599  0.77187992  0.89500948     1.37500
O1103       O  0.98510317  0.72233784  0.84640333    -0.57600
O1104       O  0.96109664  0.86260591  0.89443825    -0.56400
C1105       C  0.60669893  0.68199622  0.93083160     0.77400
O1106       O  0.98149402  0.82395601  0.94166680    -0.58800
O1107       O  0.94638760  0.69652217  0.89299359    -0.57200
O1108       O  0.62618156  0.83665429  0.89229527    -0.57200
O1109       O  0.59981898  0.68176440  0.89972276    -0.56400
O1110       O  0.73471023  0.57520178  0.94484824    -0.57600
C1111       C  0.87496408  0.95327530  0.92752564     0.75000
O1112       O  0.72858515  0.97728060  0.84704941    -0.58800
C1113       C  0.68950104  0.60040838  0.93003426     0.75000
C1114       C  0.85568061  0.61548567  0.85885455     0.77400
Cd1115     Cd  0.78038512  0.52647316  0.89468128     1.37500
O1116       O  0.84580132  0.99776854  0.94126975    -0.57600
O1117       O  0.87285627  0.59461042  0.88655227    -0.56400
C1118       C  0.70705980  0.93044060  0.86249471     0.77400
O1119       O  0.80902932  0.58861052  0.84621726    -0.58800
O1120       O  0.85600486  0.93785368  0.89904419    -0.57200
O1121       O  0.69319618  0.59996248  0.89888908    -0.57200
O1122       O  0.71129969  0.93328954  0.89370891    -0.56400
C1123       C  0.92418312  0.93092273  0.58845813    -0.02300
C1124       C  0.61781864  0.62537135  0.59403892    -0.02300
C1125       C  0.86805784  0.67604332  0.69838001    -0.02300
C1126       C  0.67333170  0.87000210  0.69791716    -0.02300
O1127       O  0.80165411  0.58334176  0.69373874    -0.57600
C1128       C  0.70244152  0.92738939  0.68078198     0.75000
O1129       O  0.69431920  0.54271043  0.60233438    -0.58800
C1130       C  0.84380670  0.61699926  0.68098299     0.75000
C1131       C  0.86433780  0.95372578  0.60527336     0.77400
Cd1132     Cd  0.77220921  0.52325890  0.64436377     1.37500
O1133       O  0.75467968  0.94872049  0.68970320    -0.57600
O1134       O  0.85415098  0.94333952  0.63555691    -0.56400
C1135       C  0.67423569  0.59560540  0.61147398     0.77400
O1136       O  0.82869495  0.99388847  0.59230597    -0.58800
O1137       O  0.67965783  0.95350493  0.65559695    -0.57200
O1138       O  0.85642375  0.60440725  0.65112908    -0.57200
O1139       O  0.70237021  0.61916343  0.63593608    -0.56400
O1140       O  0.00614044  0.85345638  0.59870961    -0.57600
C1141       C  0.59250573  0.68549564  0.60933124     0.75000
O1142       O  0.58481626  0.79916925  0.69368323    -0.58800
C1143       C  0.95273667  0.87381445  0.60633434     0.75000
C1144       C  0.92442953  0.70648272  0.68050679     0.77400
Cd1145     Cd  0.51971461  0.77899850  0.64465751     1.37500
O1146       O  0.54504392  0.71211516  0.59718575    -0.57600
O1147       O  0.95145630  0.68338272  0.65553313    -0.56400
C1148       C  0.61247915  0.84714591  0.68256509     0.77400
O1149       O  0.94419029  0.75992545  0.68904124    -0.58800
O1150       O  0.61116209  0.70710448  0.63662575    -0.57200
O1151       O  0.92746657  0.84660352  0.63067207    -0.57200
O1152       O  0.59110709  0.86874938  0.65583422    -0.56400
C1153       C  0.81138946  0.72059198  0.69572919    -0.05900
C1154       C  0.80784187  0.76302421  0.66904829    -0.17000
C1155       C  0.76021483  0.80676124  0.66664899     0.11300
C1156       C  0.71691869  0.81303161  0.69280253    -0.05800
C1157       C  0.71166646  0.76181804  0.71428598    -0.17100
C1158       C  0.75762824  0.71591178  0.71631978     0.11300
S1159       S  0.75051759  0.84283410  0.62696619    -0.32000
S1160       S  0.74450229  0.65303601  0.74537126    -0.32000
H1161       H  0.67917915  0.65601255  0.74483279     0.29300
H1162       H  0.68648024  0.83108588  0.62558939     0.29300
H1163       H  0.84055092  0.76034561  0.64876979     0.19900
H1164       H  0.67107353  0.75823421  0.72969270     0.19900
C1165       C  0.96770678  0.98795305  0.59296673    -0.05900
C1166       C  0.50651229  0.49216166  0.62100994    -0.17000
C1167       C  0.55022514  0.53999836  0.62427104     0.11300
C1168       C  0.56116939  0.58097059  0.59726332    -0.05800
C1169       C  0.51394028  0.58478671  0.57337234    -0.17100
C1170       C  0.46612681  0.54102698  0.57175675     0.11300
S1171       S  0.58231118  0.55147806  0.66489191    -0.32000
S1172       S  0.90412667  0.55625515  0.54285017    -0.32000
H1173       H  0.90969704  0.12175433  0.54368128     0.29300
H1174       H  0.56553042  0.61470045  0.66634187     0.29300
H1175       H  0.50111900  0.95962298  0.64133527     0.19900
H1176       H  0.51493271  0.62224934  0.55548702     0.19900
C1177       C  0.89379794  0.67404556  0.80656167    -0.05900
C1178       C  0.89464253  0.61662192  0.78910849    -0.17000
C1179       C  0.89440939  0.61408635  0.75418225     0.11300
C1180       C  0.88667200  0.67003747  0.73557079    -0.05800
C1181       C  0.89371181  0.72651240  0.75305315    -0.17100
C1182       C  0.90126637  0.72932007  0.78715266     0.11300
S1183       S  0.90870035  0.53884732  0.73580202    -0.32000
S1184       S  0.92258691  0.80635609  0.80191057    -0.32000
H1185       H  0.90503853  0.80376587  0.83498936     0.29300
H1186       H  0.94383583  0.56316746  0.70935008     0.29300
H1187       H  0.89661009  0.57298502  0.80258517     0.19900
H1188       H  0.89085930  0.77061746  0.74007871     0.19900
C1189       C  0.67922805  0.88780509  0.80667123    -0.05900
C1190       C  0.62124302  0.89399434  0.79038389    -0.17000
C1191       C  0.61621415  0.89412335  0.75552549     0.11300
C1192       C  0.67031093  0.88555253  0.73568734    -0.05800
C1193       C  0.72773849  0.89000038  0.75212939    -0.17100
C1194       C  0.73312678  0.89451853  0.78629280     0.11300
S1195       S  0.54033630  0.91020514  0.73886590    -0.32000
S1196       S  0.81194317  0.90995288  0.79968156    -0.32000
H1197       H  0.80949498  0.90234472  0.83371913     0.29300
H1198       H  0.56330428  0.94770263  0.71303625     0.29300
H1199       H  0.57914326  0.90016409  0.80457346     0.19900
H1200       H  0.77053043  0.88700850  0.73812519     0.19900
C1201       C  0.73029666  0.81582292  0.84812370    -0.05900
C1202       C  0.77482510  0.81430060  0.87362618    -0.17000
C1203       C  0.81762505  0.76583249  0.87675785     0.11300
C1204       C  0.82466384  0.72195450  0.85048569    -0.05800
C1205       C  0.77389806  0.71745426  0.82872956    -0.17100
C1206       C  0.72556505  0.76060804  0.82884031     0.11300
S1207       S  0.84532424  0.75576456  0.91835356    -0.32000
S1208       S  0.65769416  0.73922251  0.80589438    -0.32000
H1209       H  0.67730473  0.77730582  0.78026147     0.29300
H1210       H  0.83329866  0.69125115  0.91877756     0.29300
H1211       H  0.77398565  0.84774707  0.89334413     0.19500
H1212       H  0.77139177  0.67899081  0.81152398     0.19900
C1213       C  0.64487804  0.62620437  0.98593158    -0.05900
C1214       C  0.64872640  0.68354854  0.50326804    -0.17000
C1215       C  0.64671615  0.68615604  0.53817718     0.11300
C1216       C  0.63628369  0.63059691  0.55672911    -0.05800
C1217       C  0.64204336  0.57392070  0.53940670    -0.17100
C1218       C  0.65046657  0.57084591  0.50545207     0.11300
S1219       S  0.66402885  0.76041690  0.55681205    -0.32000
S1220       S  0.67268814  0.49369060  0.99138806    -0.32000
H1221       H  0.65597869  0.49498757  0.95826504     0.29300
H1222       H  0.69877421  0.73384574  0.58270437     0.29300
H1223       H  0.65494275  0.72677481  0.98989378     0.19900
H1224       H  0.63788486  0.52996801  0.55246245     0.19900
C1225       C  0.93125818  0.91426185  0.98007607    -0.05900
C1226       C  0.87313153  0.90960889  0.49628944    -0.17000
C1227       C  0.86818060  0.90662746  0.53099325     0.11300
C1228       C  0.92192688  0.91414843  0.55091581    -0.05800
C1229       C  0.97953859  0.90978327  0.53452239    -0.17100
C1230       C  0.98512128  0.90658136  0.50031478     0.11300
S1231       S  0.79382401  0.88541751  0.54744870    -0.32000
S1232       S  0.56357719  0.89009568  0.98652390    -0.32000
H1233       H  0.56167836  0.90498085  0.95308543     0.29300
H1234       H  0.82113775  0.84265880  0.56946455     0.29300
H1235       H  0.83083399  0.90647506  0.98194630     0.19900
H1236       H  0.02223981  0.91178738  0.54861935     0.19900
C1237       C  0.98008620  0.98575912  0.93757252    -0.05900
C1238       C  0.47511473  0.53544291  0.96021753    -0.17000
C1239       C  0.51959874  0.58273565  0.96206193     0.11300
C1240       C  0.57522597  0.57777317  0.94318889    -0.05800
C1241       C  0.57408928  0.53480363  0.91670835    -0.17100
C1242       C  0.52489713  0.49356862  0.91202188     0.11300
S1243       S  0.50185837  0.64886980  0.98803069    -0.32000
S1244       S  0.01569115  0.46839545  0.86988307    -0.32000
H1245       H  0.95153142  0.98011095  0.86934787     0.29300
H1246       H  0.43701839  0.64519541  0.98393146     0.29300
H1247       H  0.43618506  0.03694105  0.97698656     0.19900
H1248       H  0.60899872  0.53514753  0.89770432     0.19900
loop_ 
_geom_bond_atom_site_label_1 
_geom_bond_atom_site_label_2 
_geom_bond_distance 
_geom_bond_site_symmetry_2 
_ccdc_geom_bond_type 
C1            C9   1.537       .  S
C1           C19   1.529       .  S
C1          C133   1.564       .  S
C1          C145   1.556       .  S
C2           C13   1.531       .  S
C2           C21   1.538       .  S
C2          C121   1.562       .  S
C2          C148   1.554       .  S
C3            C8   1.529       .  S
C3           C26   1.542       .  S
C3           C97   1.565       .  S
C3          C109   1.557       .  S
C4            C6   1.537       .  S
C4           C22   1.524       .  S
C4           C85   1.566       .  S
C4          C112   1.561       .  S
O5            C8   1.266       .  A
O5          Cd10   2.483       .  S
C6           O15   1.261       .  A
C6           O11   1.266       .  A
O7           C13   1.267       .  A
O7          Cd10   2.502       .  S
C8           O16   1.266       .  A
C9           O14   1.267       .  A
C9           O12   1.259       .  A
Cd10         O17   2.421       .  S
Cd10         O16   2.448       .  S
Cd10        O639   2.457   1_455  S
Cd10        O635   2.459   1_455  S
Cd10        O638   2.451   1_455  S
Cd10        O636   2.477   1_455  S
O11        Cd634   2.459       .  S
O12        Cd634   2.477       .  S
C13          O17   1.268       .  A
O14        Cd634   2.451       .  S
O15        Cd634   2.457       .  S
O18          C21   1.265       .  A
O18         Cd23   2.484       .  S
C19          O28   1.267       .  A
C19          O24   1.269       .  A
O20          C26   1.267       .  A
O20        Cd335   2.465       .  S
C21          O29   1.262       .  A
C22          O27   1.266       .  A
C22          O25   1.262       .  A
Cd23         O29   2.455       .  S
Cd23         O27   2.445       .  S
Cd23         O25   2.487       .  S
Cd23        O332   2.465   1_545  S
Cd23        O342   2.487   1_545  S
Cd23        O340   2.506   1_545  S
Cd23        O336   2.434   1_545  S
O24        Cd335   2.434       .  S
C26          O30   1.268       .  A
O28        Cd335   2.506       .  S
O30        Cd335   2.487       .  S
C31          C39   1.535       .  S
C31          C51   1.548       .  S
C31          C73   1.549       .  S
C31         C136   1.562       .  S
C32          C43   1.543       .  S
C32          C49   1.529       .  S
C32          C76   1.550       .  S
C32         C124   1.564       .  S
C33          C38   1.539       .  S
C33          C52   1.553       .  S
C33          C61   1.552       .  S
C33          C88   1.563       .  S
C34          C36   1.541       .  S
C34          C56   1.531       .  S
C34          C64   1.553       .  S
C34         C100   1.565       .  S
O35          C38   1.266       .  A
O35         Cd40   2.461       .  S
C36          O45   1.262       .  A
C36          O41   1.267       .  A
O37          C43   1.267       .  A
O37         Cd40   2.426       .  S
C38          O46   1.267       .  A
C39          O44   1.266       .  A
C39          O42   1.263       .  A
Cd40         O47   2.568       .  S
Cd40         O46   2.525       .  S
Cd40        O357   2.528   1_545  S
Cd40        O353   2.457   1_545  S
Cd40        O356   2.510   1_545  S
Cd40        O354   2.483   1_545  S
O41        Cd352   2.457       .  S
O42        Cd352   2.483       .  S
C43          O47   1.266       .  A
O44        Cd352   2.510       .  S
O45        Cd352   2.528       .  S
O48          C51   1.267       .  A
O48        Cd677   2.465       .  S
C49          O58   1.264       .  A
C49          O54   1.270       .  A
O50          C56   1.268       .  A
O50         Cd53   2.469       .  S
C51          O59   1.265       .  A
C52          O57   1.269       .  A
C52          O55   1.266       .  A
Cd53         O60   2.501       .  S
Cd53         O58   2.520       .  S
Cd53         O54   2.457       .  S
Cd53        O672   2.465       .  S
Cd53        O683   2.522   1_455  S
Cd53        O681   2.453   1_455  S
Cd53        O679   2.555   1_455  S
O55        Cd677   2.555       .  S
C56          O60   1.263       .  A
O57        Cd677   2.453       .  S
O59        Cd677   2.522       .  S
C61          C62   1.412       .  A
C61          C66   1.427       .  A
C62          C63   1.392       .  A
C62          H71   1.081       .  S
C63          C64   1.415       .  A
C63          S67   1.793       .  S
C64          C65   1.402       .  A
C65          C66   1.397       .  A
C65          H72   1.075       .  S
C66          S68   1.807       .  S
S67          H70   1.402       .  S
S68          H69   1.408       .  S
C73        C1010   1.413       .  A
C73        C1014   1.423       .  A
C74          C75   1.396   1_565  A
C74        C1009   1.413   1_455  A
C74         H395   1.083       .  S
C75          C76   1.419       .  A
C75          S79   1.801       .  S
C76          C77   1.407       .  A
C77          C78   1.393   1_455  A
C77          H84   1.079       .  S
C78        C1009   1.423   1_545  A
C78         S704   1.806       .  S
S79          H82   1.402       .  S
S80         C702   1.806       .  S
S80         H393   1.407       .  S
H81         S392   1.407       .  S
H83         C386   1.083       .  S
C85          C86   1.418       .  A
C85          C90   1.428       .  A
C86          C87   1.414       .  A
C86          H95   1.082       .  S
C87          C88   1.424       .  A
C87          S91   1.801       .  S
C88          C89   1.409       .  A
C89          C90   1.391       .  A
C89          H96   1.081       .  S
C90          S92   1.813       .  S
S91          H94   1.408       .  S
S92          H93   1.391       .  S
C97          C98   1.419       .  A
C97         C102   1.429       .  A
C98          C99   1.415       .  A
C98         H107   1.080       .  S
C99         C100   1.425       .  A
C99         S103   1.801       .  S
C100        C101   1.408       .  A
C101        C102   1.391       .  A
C101        H108   1.082       .  S
C102        S104   1.812       .  S
S103        H106   1.405       .  S
S104        H105   1.387       .  S
C109        C110   1.410       .  A
C109        C114   1.421       .  A
C110        C111   1.394       .  A
C110        H119   1.073       .  S
C111        C112   1.427       .  A
C111        S115   1.799       .  S
C112        C113   1.408       .  A
C113        C114   1.391       .  A
C113        H120   1.080       .  S
C114        S116   1.792       .  S
S115        H118   1.405       .  S
S116        H117   1.383       .  S
C121        C278   1.417       .  A
C121        C282   1.428       .  A
C122        C123   1.414       .  A
C122        C277   1.417   1_554  A
C122        H287   1.079   1_554  S
C123        C124   1.423       .  A
C123        S127   1.799       .  S
C124        C125   1.407       .  A
C125        C126   1.387       .  A
C125        H132   1.082       .  S
C126        C277   1.428   1_554  A
C126        S284   1.811   1_544  S
S127        H130   1.408       .  S
S128        C282   1.811   1_565  S
S128        H129   1.388       .  S
H131        C278   1.079       .  S
C133        C290   1.414       .  A
C133        C294   1.430       .  A
C134        C135   1.409   1_556  A
C134        C289   1.414       .  A
C134        H299   1.083       .  S
C135        C136   1.421       .  A
C135        S139   1.790       .  S
C136        C137   1.408       .  A
C137        C138   1.391       .  A
C137        H144   1.084       .  S
C138        C289   1.430   1_554  A
C138        S920   1.812   1_554  S
S139        H142   1.406       .  S
S140        C918   1.812   1_455  S
S140        H141   1.390       .  S
H143        C290   1.083       .  S
C145       C1082   1.408       .  A
C145       C1086   1.422       .  A
C146        C147   1.395   1_655  A
C146       C1081   1.408   1_545  A
C146        H467   1.077       .  S
C147        C148   1.422       .  A
C147        S151   1.804       .  S
C148        C149   1.413       .  A
C149        C150   1.391   1_545  A
C149        H156   1.074       .  S
C150       C1081   1.422   1_455  A
C150        S776   1.800       .  S
S151        H154   1.408   1_455  S
S152        C774   1.800       .  S
S152        H465   1.404       .  S
H153        S464   1.404       .  S
H155        C458   1.077       .  S
C157        C165   1.537       .  S
C157        C175   1.529       .  S
C157        C289   1.564       .  S
C157        C301   1.556       .  S
C158        C169   1.531       .  S
C158        C177   1.538       .  S
C158        C277   1.562       .  S
C158        C304   1.554       .  S
C159        C164   1.529       .  S
C159        C182   1.542       .  S
C159        C253   1.565       .  S
C159        C265   1.557       .  S
C160        C162   1.537       .  S
C160        C178   1.524       .  S
C160        C241   1.566       .  S
C160        C268   1.561       .  S
O161        C164   1.266       .  A
O161       Cd166   2.483       .  S
C162        O171   1.261       .  A
C162        O167   1.266       .  A
O163        C169   1.267       .  A
O163       Cd166   2.502       .  S
C164        O172   1.266       .  A
C165        O170   1.267       .  A
C165        O168   1.259       .  A
Cd166       O173   2.421       .  S
Cd166       O172   2.448       .  S
Cd166       O795   2.457   1_455  S
Cd166       O791   2.459   1_455  S
Cd166       O794   2.451   1_455  S
Cd166       O792   2.477   1_455  S
O167       Cd790   2.459       .  S
O168       Cd790   2.477       .  S
C169        O173   1.268       .  A
O170       Cd790   2.451       .  S
O171       Cd790   2.457       .  S
O174        C177   1.265       .  A
O174       Cd179   2.484       .  S
C175        O184   1.267       .  A
C175        O180   1.269       .  A
O176        C182   1.267       .  A
O176       Cd491   2.465       .  S
C177        O185   1.262       .  A
C178        O183   1.266       .  A
C178        O181   1.262       .  A
Cd179       O488   2.465   1_545  S
Cd179       O498   2.487   1_545  S
Cd179       O185   2.455       .  S
Cd179       O496   2.506   1_545  S
Cd179       O492   2.434   1_545  S
Cd179       O183   2.445       .  S
Cd179       O181   2.487       .  S
O180       Cd491   2.434       .  S
C182        O186   1.268       .  A
O184       Cd491   2.506       .  S
O186       Cd491   2.487       .  S
C187        C195   1.535       .  S
C187        C207   1.548       .  S
C187        C229   1.549       .  S
C187        C292   1.562       .  S
C188        C199   1.543       .  S
C188        C205   1.529       .  S
C188        C232   1.550       .  S
C188        C280   1.564       .  S
C189        C194   1.539       .  S
C189        C208   1.553       .  S
C189        C217   1.552       .  S
C189        C244   1.563       .  S
C190        C192   1.541       .  S
C190        C212   1.531       .  S
C190        C220   1.553       .  S
C190        C256   1.565       .  S
O191        C194   1.266       .  A
O191       Cd196   2.461       .  S
C192        O201   1.262       .  A
C192        O197   1.267       .  A
O193        C199   1.267       .  A
O193       Cd196   2.426       .  S
C194        O202   1.267       .  A
C195        O200   1.266       .  A
C195        O198   1.263       .  A
Cd196       O203   2.568       .  S
Cd196       O202   2.525       .  S
Cd196       O513   2.528   1_545  S
Cd196       O509   2.457   1_545  S
Cd196       O512   2.510   1_545  S
Cd196       O510   2.483   1_545  S
O197       Cd508   2.457       .  S
O198       Cd508   2.483       .  S
C199        O203   1.266       .  A
O200       Cd508   2.510       .  S
O201       Cd508   2.528       .  S
O204        C207   1.267       .  A
O204       Cd833   2.465       .  S
C205        O214   1.264       .  A
C205        O210   1.270       .  A
O206        C212   1.268       .  A
O206       Cd209   2.469       .  S
C207        O215   1.265       .  A
C208        O213   1.269       .  A
C208        O211   1.266       .  A
Cd209       O828   2.465       .  S
Cd209       O216   2.501       .  S
Cd209       O839   2.522   1_455  S
Cd209       O214   2.520       .  S
Cd209       O210   2.457       .  S
Cd209       O837   2.453   1_455  S
Cd209       O835   2.555   1_455  S
O211       Cd833   2.555       .  S
C212        O216   1.263       .  A
O213       Cd833   2.453       .  S
O215       Cd833   2.522       .  S
C217        C218   1.412       .  A
C217        C222   1.427       .  A
C218        C219   1.392       .  A
C218        H227   1.081       .  S
C219        C220   1.415       .  A
C219        S223   1.793       .  S
C220        C221   1.402       .  A
C221        C222   1.397       .  A
C221        H228   1.075       .  S
C222        S224   1.807       .  S
S223        H226   1.402       .  S
S224        H225   1.408       .  S
C229       C1166   1.413       .  A
C229       C1170   1.423       .  A
C230       C1165   1.413   1_455  A
C230        C231   1.396   1_565  A
C230        H551   1.083       .  S
C231        C232   1.419       .  A
C231        S235   1.801       .  S
C232        C233   1.407       .  A
C233        C234   1.393   1_455  A
C233        H240   1.079       .  S
C234       C1165   1.423   1_545  A
C234        S860   1.806       .  S
S235        H238   1.402       .  S
S236        C858   1.806       .  S
S236        H549   1.407       .  S
H237        S548   1.407       .  S
H239        C542   1.083       .  S
C241        C242   1.418       .  A
C241        C246   1.428       .  A
C242        C243   1.414       .  A
C242        H251   1.082       .  S
C243        C244   1.424       .  A
C243        S247   1.801       .  S
C244        C245   1.409       .  A
C245        C246   1.391       .  A
C245        H252   1.081       .  S
C246        S248   1.813       .  S
S247        H250   1.408       .  S
S248        H249   1.391       .  S
C253        C254   1.419       .  A
C253        C258   1.429       .  A
C254        C255   1.415       .  A
C254        H263   1.080       .  S
C255        C256   1.425       .  A
C255        S259   1.801       .  S
C256        C257   1.408       .  A
C257        C258   1.391       .  A
C257        H264   1.082       .  S
C258        S260   1.812       .  S
S259        H262   1.405       .  S
S260        H261   1.387       .  S
C265        C266   1.410       .  A
C265        C270   1.421       .  A
C266        C267   1.394       .  A
C266        H275   1.073       .  S
C267        C268   1.427       .  A
C267        S271   1.799       .  S
C268        C269   1.408       .  A
C269        C270   1.391       .  A
C269        H276   1.080       .  S
C270        S272   1.792       .  S
S271        H274   1.405       .  S
S272        H273   1.383       .  S
C278        C279   1.414       .  A
C279        C280   1.423       .  A
C279        S283   1.799       .  S
C280        C281   1.407       .  A
C281        C282   1.387       .  A
C281        H288   1.082       .  S
S283        H286   1.408       .  S
S284        H285   1.388       .  S
C290        C291   1.409       .  A
C291        C292   1.421       .  A
C291        S295   1.790       .  S
C292        C293   1.408       .  A
C293        C294   1.391       .  A
C293        H300   1.084       .  S
C294        S764   1.812       .  S
S295        H298   1.406       .  S
S296        C762   1.812   1_456  S
S296        H297   1.390       .  S
C301       C1238   1.408       .  A
C301       C1242   1.422       .  A
C302       C1237   1.408   1_545  A
C302        C303   1.395   1_655  A
C302        H623   1.077       .  S
C303        C304   1.422       .  A
C303        S307   1.804       .  S
C304        C305   1.413       .  A
C305        C306   1.391   1_545  A
C305        H312   1.074       .  S
C306       C1237   1.422   1_455  A
C306        S932   1.800       .  S
S307        H310   1.408   1_455  S
S308        C930   1.800       .  S
S308        H621   1.404       .  S
H309        S620   1.404       .  S
H311        C614   1.077       .  S
C313        C321   1.537       .  S
C313        C331   1.529       .  S
C313        C445   1.564       .  S
C313        C457   1.556       .  S
C314        C325   1.531       .  S
C314        C333   1.538       .  S
C314        C433   1.562       .  S
C314        C460   1.554       .  S
C315        C320   1.529       .  S
C315        C338   1.542       .  S
C315        C409   1.565       .  S
C315        C421   1.557       .  S
C316        C318   1.537       .  S
C316        C334   1.524       .  S
C316        C397   1.566       .  S
C316        C424   1.561       .  S
O317        C320   1.266       .  A
O317       Cd322   2.483       .  S
C318        O327   1.261       .  A
C318        O323   1.266       .  A
O319        C325   1.267       .  A
O319       Cd322   2.502       .  S
C320        O328   1.266       .  A
C321        O326   1.267       .  A
C321        O324   1.259       .  A
Cd322       O329   2.421       .  S
Cd322       O328   2.448       .  S
Cd322       O951   2.457   1_455  S
Cd322       O947   2.459   1_455  S
Cd322       O950   2.451   1_455  S
Cd322       O948   2.477   1_455  S
O323       Cd946   2.459       .  S
O324       Cd946   2.477       .  S
C325        O329   1.268       .  A
O326       Cd946   2.451       .  S
O327       Cd946   2.457       .  S
O330        C333   1.265       .  A
O330       Cd335   2.484       .  S
C331        O340   1.267       .  A
C331        O336   1.269       .  A
O332        C338   1.267       .  A
C333        O341   1.262       .  A
C334        O339   1.266       .  A
C334        O337   1.262       .  A
Cd335       O341   2.455       .  S
Cd335       O339   2.445       .  S
Cd335       O337   2.487       .  S
C338        O342   1.268       .  A
C343        C351   1.535       .  S
C343        C363   1.548       .  S
C343        C385   1.549       .  S
C343        C448   1.562       .  S
C344        C355   1.543       .  S
C344        C361   1.529       .  S
C344        C388   1.550       .  S
C344        C436   1.564       .  S
C345        C350   1.539       .  S
C345        C364   1.553       .  S
C345        C373   1.552       .  S
C345        C400   1.563       .  S
C346        C348   1.541       .  S
C346        C368   1.531       .  S
C346        C376   1.553       .  S
C346        C412   1.565       .  S
O347        C350   1.266       .  A
O347       Cd352   2.461       .  S
C348        O357   1.262       .  A
C348        O353   1.267       .  A
O349        C355   1.267       .  A
O349       Cd352   2.426       .  S
C350        O358   1.267       .  A
C351        O356   1.266       .  A
C351        O354   1.263       .  A
Cd352       O359   2.568       .  S
Cd352       O358   2.525       .  S
C355        O359   1.266       .  A
O360        C363   1.267       .  A
O360       Cd989   2.465       .  S
C361        O370   1.264       .  A
C361        O366   1.270       .  A
O362        C368   1.268       .  A
O362       Cd365   2.469       .  S
C363        O371   1.265       .  A
C364        O369   1.269       .  A
C364        O367   1.266       .  A
Cd365       O984   2.465       .  S
Cd365       O372   2.501       .  S
Cd365       O995   2.522   1_455  S
Cd365       O370   2.520       .  S
Cd365       O366   2.457       .  S
Cd365       O993   2.453   1_455  S
Cd365       O991   2.555   1_455  S
O367       Cd989   2.555       .  S
C368        O372   1.263       .  A
O369       Cd989   2.453       .  S
O371       Cd989   2.522       .  S
C373        C374   1.412       .  A
C373        C378   1.427       .  A
C374        C375   1.392       .  A
C374        H383   1.081       .  S
C375        C376   1.415       .  A
C375        S379   1.793       .  S
C376        C377   1.402       .  A
C377        C378   1.397       .  A
C377        H384   1.075       .  S
C378        S380   1.807       .  S
S379        H382   1.402       .  S
S380        H381   1.408       .  S
C385        C698   1.413       .  A
C385        C702   1.423   1_565  A
C386        C697   1.413   1_455  A
C386        C387   1.396       .  A
C387        C388   1.419       .  A
C387        S391   1.801       .  S
C388        C389   1.407       .  A
C389        C390   1.393   1_455  A
C389        H396   1.079       .  S
C390        C697   1.423       .  A
C390       S1016   1.806       .  S
S391        H394   1.402       .  S
S392       C1014   1.806       .  S
C397        C398   1.418       .  A
C397        C402   1.428       .  A
C398        C399   1.414       .  A
C398        H407   1.082       .  S
C399        C400   1.424       .  A
C399        S403   1.801       .  S
C400        C401   1.409       .  A
C401        C402   1.391       .  A
C401        H408   1.081       .  S
C402        S404   1.813       .  S
S403        H406   1.408       .  S
S404        H405   1.391       .  S
C409        C410   1.419       .  A
C409        C414   1.429       .  A
C410        C411   1.415       .  A
C410        H419   1.080       .  S
C411        C412   1.425       .  A
C411        S415   1.801       .  S
C412        C413   1.408       .  A
C413        C414   1.391       .  A
C413        H420   1.082       .  S
C414        S416   1.812       .  S
S415        H418   1.405       .  S
S416        H417   1.387       .  S
C421        C422   1.410       .  A
C421        C426   1.421       .  A
C422        C423   1.394       .  A
C422        H431   1.073       .  S
C423        C424   1.427       .  A
C423        S427   1.799       .  S
C424        C425   1.408       .  A
C425        C426   1.391       .  A
C425        H432   1.080       .  S
C426        S428   1.792       .  S
S427        H430   1.405       .  S
S428        H429   1.383       .  S
C433        C590   1.417       .  A
C433        C594   1.428       .  A
C434        C589   1.417   1_554  A
C434        C435   1.414       .  A
C434        H599   1.079   1_554  S
C435        C436   1.423       .  A
C435        S439   1.799       .  S
C436        C437   1.407       .  A
C437        C438   1.387       .  A
C437        H444   1.082       .  S
C438        C589   1.428   1_554  A
C438        S596   1.811   1_554  S
S439        H442   1.408       .  S
S440        C594   1.811       .  S
S440        H441   1.388       .  S
H443        C590   1.079       .  S
C445        C602   1.414       .  A
C445        C606   1.430       .  A
C446        C601   1.414       .  A
C446        C447   1.409   1_556  A
C446        H611   1.083       .  S
C447        C448   1.421       .  A
C447        S451   1.790       .  S
C448        C449   1.408       .  A
C449        C450   1.391       .  A
C449        H456   1.084       .  S
C450        C601   1.430   1_554  A
C450       S1232   1.812   1_554  S
S451        H454   1.406       .  S
S452       C1230   1.812   1_455  S
S452        H453   1.390       .  S
H455        C602   1.083       .  S
C457        C770   1.408   1_565  A
C457        C774   1.422       .  A
C458        C769   1.408       .  A
C458        C459   1.395   1_655  A
C459        C460   1.422       .  A
C459        S463   1.804       .  S
C460        C461   1.413       .  A
C461        C462   1.391       .  A
C461        H468   1.074       .  S
C462        C769   1.422   1_455  A
C462       S1088   1.800       .  S
S463        H466   1.408   1_455  S
S464       C1086   1.800       .  S
C469        C477   1.537       .  S
C469        C487   1.529       .  S
C469        C601   1.564       .  S
C469        C613   1.556       .  S
C470        C481   1.531       .  S
C470        C489   1.538       .  S
C470        C589   1.562       .  S
C470        C616   1.554       .  S
C471        C476   1.529       .  S
C471        C494   1.542       .  S
C471        C565   1.565       .  S
C471        C577   1.557       .  S
C472        C474   1.537       .  S
C472        C490   1.524       .  S
C472        C553   1.566       .  S
C472        C580   1.561       .  S
O473        C476   1.266       .  A
O473       Cd478   2.483       .  S
C474        O483   1.261       .  A
C474        O479   1.266       .  A
O475        C481   1.267       .  A
O475       Cd478   2.502       .  S
C476        O484   1.266       .  A
C477        O482   1.267       .  A
C477        O480   1.259       .  A
Cd478       O485   2.421       .  S
Cd478       O484   2.448       .  S
Cd478      O1107   2.457   1_455  S
Cd478      O1103   2.459   1_455  S
Cd478      O1106   2.451   1_455  S
Cd478      O1104   2.477   1_455  S
O479      Cd1102   2.459       .  S
O480      Cd1102   2.477       .  S
C481        O485   1.268       .  A
O482      Cd1102   2.451       .  S
O483      Cd1102   2.457       .  S
O486        C489   1.265       .  A
O486       Cd491   2.484       .  S
C487        O496   1.267       .  A
C487        O492   1.269       .  A
O488        C494   1.267       .  A
C489        O497   1.262       .  A
C490        O495   1.266       .  A
C490        O493   1.262       .  A
Cd491       O497   2.455       .  S
Cd491       O495   2.445       .  S
Cd491       O493   2.487       .  S
C494        O498   1.268       .  A
C499        C507   1.535       .  S
C499        C519   1.548       .  S
C499        C541   1.549       .  S
C499        C604   1.562       .  S
C500        C511   1.543       .  S
C500        C517   1.529       .  S
C500        C544   1.550       .  S
C500        C592   1.564       .  S
C501        C506   1.539       .  S
C501        C520   1.553       .  S
C501        C529   1.552       .  S
C501        C556   1.563       .  S
C502        C504   1.541       .  S
C502        C524   1.531       .  S
C502        C532   1.553       .  S
C502        C568   1.565       .  S
O503        C506   1.266       .  A
O503       Cd508   2.461       .  S
C504        O513   1.262       .  A
C504        O509   1.267       .  A
O505        C511   1.267       .  A
O505       Cd508   2.426       .  S
C506        O514   1.267       .  A
C507        O512   1.266       .  A
C507        O510   1.263       .  A
Cd508       O515   2.568       .  S
Cd508       O514   2.525       .  S
C511        O515   1.266       .  A
O516        C519   1.267       .  A
O516      Cd1145   2.465       .  S
C517        O526   1.264       .  A
C517        O522   1.270       .  A
O518        C524   1.268       .  A
O518       Cd521   2.469       .  S
C519        O527   1.265       .  A
C520        O525   1.269       .  A
C520        O523   1.266       .  A
Cd521      O1140   2.465       .  S
Cd521       O528   2.501       .  S
Cd521      O1151   2.522   1_455  S
Cd521       O526   2.520       .  S
Cd521       O522   2.457       .  S
Cd521      O1149   2.453   1_455  S
Cd521      O1147   2.555   1_455  S
O523      Cd1145   2.555       .  S
C524        O528   1.263       .  A
O525      Cd1145   2.453       .  S
O527      Cd1145   2.522       .  S
C529        C530   1.412       .  A
C529        C534   1.427       .  A
C530        C531   1.392       .  A
C530        H539   1.081       .  S
C531        C532   1.415       .  A
C531        S535   1.793       .  S
C532        C533   1.402       .  A
C533        C534   1.397       .  A
C533        H540   1.075       .  S
C534        S536   1.807       .  S
S535        H538   1.402       .  S
S536        H537   1.408       .  S
C541        C854   1.413       .  A
C541        C858   1.423   1_565  A
C542        C853   1.413   1_455  A
C542        C543   1.396       .  A
C543        C544   1.419       .  A
C543        S547   1.801       .  S
C544        C545   1.407       .  A
C545        C546   1.393   1_455  A
C545        H552   1.079       .  S
C546        C853   1.423       .  A
C546       S1172   1.806       .  S
S547        H550   1.402       .  S
S548       C1170   1.806       .  S
C553        C554   1.418       .  A
C553        C558   1.428       .  A
C554        C555   1.414       .  A
C554        H563   1.082       .  S
C555        C556   1.424       .  A
C555        S559   1.801       .  S
C556        C557   1.409       .  A
C557        C558   1.391       .  A
C557        H564   1.081       .  S
C558        S560   1.813       .  S
S559        H562   1.408       .  S
S560        H561   1.391       .  S
C565        C566   1.419       .  A
C565        C570   1.429       .  A
C566        C567   1.415       .  A
C566        H575   1.080       .  S
C567        C568   1.425       .  A
C567        S571   1.801       .  S
C568        C569   1.408       .  A
C569        C570   1.391       .  A
C569        H576   1.082       .  S
C570        S572   1.812       .  S
S571        H574   1.405       .  S
S572        H573   1.387       .  S
C577        C578   1.410       .  A
C577        C582   1.421       .  A
C578        C579   1.394       .  A
C578        H587   1.073       .  S
C579        C580   1.427       .  A
C579        S583   1.799       .  S
C580        C581   1.408       .  A
C581        C582   1.391       .  A
C581        H588   1.080       .  S
C582        S584   1.792       .  S
S583        H586   1.405       .  S
S584        H585   1.383       .  S
C590        C591   1.414       .  A
C591        C592   1.423       .  A
C591        S595   1.799       .  S
C592        C593   1.407       .  A
C593        C594   1.387       .  A
C593        H600   1.082       .  S
S595        H598   1.408       .  S
S596        H597   1.388       .  S
C602        C603   1.409       .  A
C603        C604   1.421       .  A
C603        S607   1.790       .  S
C604        C605   1.408       .  A
C605        C606   1.391       .  A
C605        H612   1.084       .  S
C606       S1076   1.812       .  S
S607        H610   1.406       .  S
S608       C1074   1.812   1_456  S
S608        H609   1.390       .  S
C613        C926   1.408   1_565  A
C613        C930   1.422       .  A
C614        C925   1.408       .  A
C614        C615   1.395   1_655  A
C615        C616   1.422       .  A
C615        S619   1.804       .  S
C616        C617   1.413       .  A
C617        C618   1.391       .  A
C617        H624   1.074       .  S
C618        C925   1.422   1_455  A
C618       S1244   1.800       .  S
S619        H622   1.408   1_455  S
S620       C1242   1.800       .  S
C625        C633   1.537       .  S
C625        C643   1.529       .  S
C625        C757   1.564       .  S
C625        C769   1.556       .  S
C626        C637   1.531       .  S
C626        C645   1.538       .  S
C626        C745   1.562       .  S
C626        C772   1.554       .  S
C627        C632   1.529       .  S
C627        C650   1.542       .  S
C627        C721   1.565       .  S
C627        C733   1.557       .  S
C628        C630   1.537       .  S
C628        C646   1.524       .  S
C628        C709   1.566       .  S
C628        C736   1.561       .  S
O629        C632   1.266       .  A
O629       Cd634   2.483       .  S
C630        O639   1.261       .  A
C630        O635   1.266       .  A
O631        C637   1.267       .  A
O631       Cd634   2.502       .  S
C632        O640   1.266       .  A
C633        O638   1.267       .  A
C633        O636   1.259       .  A
Cd634       O641   2.421       .  S
Cd634       O640   2.448       .  S
C637        O641   1.268       .  A
O642        C645   1.265       .  A
O642       Cd647   2.484       .  S
C643        O652   1.267       .  A
C643        O648   1.269       .  A
O644        C650   1.267       .  A
O644       Cd959   2.465       .  S
C645        O653   1.262       .  A
C646        O651   1.266       .  A
C646        O649   1.262       .  A
Cd647       O956   2.465   1_545  S
Cd647       O966   2.487   1_545  S
Cd647       O653   2.455       .  S
Cd647       O964   2.506   1_545  S
Cd647       O960   2.434   1_545  S
Cd647       O651   2.445       .  S
Cd647       O649   2.487       .  S
O648       Cd959   2.434       .  S
C650        O654   1.268       .  A
O652       Cd959   2.506       .  S
O654       Cd959   2.487       .  S
C655        C663   1.535       .  S
C655        C675   1.548       .  S
C655        C697   1.549       .  S
C655        C760   1.562       .  S
C656        C667   1.543       .  S
C656        C673   1.529       .  S
C656        C700   1.550       .  S
C656        C748   1.564       .  S
C657        C662   1.539       .  S
C657        C676   1.553       .  S
C657        C685   1.552       .  S
C657        C712   1.563       .  S
C658        C660   1.541       .  S
C658        C680   1.531       .  S
C658        C688   1.553       .  S
C658        C724   1.565       .  S
O659        C662   1.266       .  A
O659       Cd664   2.461       .  S
C660        O669   1.262       .  A
C660        O665   1.267       .  A
O661        C667   1.267       .  A
O661       Cd664   2.426       .  S
C662        O670   1.267       .  A
C663        O668   1.266       .  A
C663        O666   1.263       .  A
Cd664       O671   2.568       .  S
Cd664       O670   2.525       .  S
Cd664       O981   2.528   1_545  S
Cd664       O977   2.457   1_545  S
Cd664       O980   2.510   1_545  S
Cd664       O978   2.483   1_545  S
O665       Cd976   2.457       .  S
O666       Cd976   2.483       .  S
C667        O671   1.266       .  A
O668       Cd976   2.510       .  S
O669       Cd976   2.528       .  S
O672        C675   1.267   1_455  A
C673        O682   1.264       .  A
C673        O678   1.270       .  A
O674        C680   1.268       .  A
O674       Cd677   2.469       .  S
C675        O683   1.265       .  A
C676        O681   1.269       .  A
C676        O679   1.266       .  A
Cd677       O684   2.501       .  S
Cd677       O682   2.520       .  S
Cd677       O678   2.457       .  S
C680        O684   1.263       .  A
C685        C686   1.412       .  A
C685        C690   1.427       .  A
C686        C687   1.392       .  A
C686        H695   1.081       .  S
C687        C688   1.415       .  A
C687        S691   1.793       .  S
C688        C689   1.402       .  A
C689        C690   1.397       .  A
C689        H696   1.075       .  S
C690        S692   1.807       .  S
S691        H694   1.402       .  S
S692        H693   1.408       .  S
C698        C699   1.396   1_565  A
C698       H1019   1.083       .  S
C699        C700   1.419       .  A
C699        S703   1.801       .  S
C700        C701   1.407       .  A
C701        C702   1.393       .  A
C701        H708   1.079       .  S
S703        H706   1.402       .  S
S704       H1017   1.407       .  S
H705       S1016   1.407       .  S
H707       C1010   1.083       .  S
C709        C710   1.418       .  A
C709        C714   1.428       .  A
C710        C711   1.414       .  A
C710        H719   1.082       .  S
C711        C712   1.424       .  A
C711        S715   1.801       .  S
C712        C713   1.409       .  A
C713        C714   1.391       .  A
C713        H720   1.081       .  S
C714        S716   1.813       .  S
S715        H718   1.408       .  S
S716        H717   1.391       .  S
C721        C722   1.419       .  A
C721        C726   1.429       .  A
C722        C723   1.415       .  A
C722        H731   1.080       .  S
C723        C724   1.425       .  A
C723        S727   1.801       .  S
C724        C725   1.408       .  A
C725        C726   1.391       .  A
C725        H732   1.082       .  S
C726        S728   1.812       .  S
S727        H730   1.405       .  S
S728        H729   1.387       .  S
C733        C734   1.410       .  A
C733        C738   1.421       .  A
C734        C735   1.394       .  A
C734        H743   1.073       .  S
C735        C736   1.427       .  A
C735        S739   1.799       .  S
C736        C737   1.408       .  A
C737        C738   1.391       .  A
C737        H744   1.080       .  S
C738        S740   1.792       .  S
S739        H742   1.405       .  S
S740        H741   1.383       .  S
C745        C902   1.417       .  A
C745        C906   1.428       .  A
C746        C901   1.417   1_554  A
C746        C747   1.414       .  A
C746        H911   1.079   1_554  S
C747        C748   1.423       .  A
C747        S751   1.799       .  S
C748        C749   1.407       .  A
C749        C750   1.387       .  A
C749        H756   1.082       .  S
C750        C901   1.428   1_554  A
C750        S908   1.811   1_544  S
S751        H754   1.408       .  S
S752        C906   1.811   1_565  S
S752        H753   1.388       .  S
H755        C902   1.079       .  S
C757        C914   1.414       .  A
C757        C918   1.430       .  A
C758        C913   1.414       .  A
C758        C759   1.409   1_556  A
C758        H923   1.083       .  S
C759        C760   1.421       .  A
C759        S763   1.790       .  S
C760        C761   1.408       .  A
C761        C762   1.391       .  A
C761        H768   1.084   1_655  S
C762        C913   1.430   1_554  A
S763        H766   1.406       .  S
S764        H765   1.390       .  S
H767        C914   1.083       .  S
C770        C771   1.395       .  A
C770       H1091   1.077       .  S
C771        C772   1.422       .  A
C771        S775   1.804       .  S
C772        C773   1.413       .  A
C773        C774   1.391   1_545  A
C773        H780   1.074       .  S
S775        H778   1.408       .  S
S776       H1089   1.404   1_455  S
H777       S1088   1.404   1_655  S
H779       C1082   1.077       .  S
C781        C789   1.537       .  S
C781        C799   1.529       .  S
C781        C913   1.564       .  S
C781        C925   1.556       .  S
C782        C793   1.531       .  S
C782        C801   1.538       .  S
C782        C901   1.562       .  S
C782        C928   1.554       .  S
C783        C788   1.529       .  S
C783        C806   1.542       .  S
C783        C877   1.565       .  S
C783        C889   1.557       .  S
C784        C786   1.537       .  S
C784        C802   1.524       .  S
C784        C865   1.566       .  S
C784        C892   1.561       .  S
O785        C788   1.266       .  A
O785       Cd790   2.483       .  S
C786        O795   1.261       .  A
C786        O791   1.266       .  A
O787        C793   1.267       .  A
O787       Cd790   2.502       .  S
C788        O796   1.266       .  A
C789        O794   1.267       .  A
C789        O792   1.259       .  A
Cd790       O797   2.421       .  S
Cd790       O796   2.448       .  S
C793        O797   1.268       .  A
O798        C801   1.265       .  A
O798       Cd803   2.484       .  S
C799        O808   1.267       .  A
C799        O804   1.269       .  A
O800        C806   1.267       .  A
O800      Cd1115   2.465       .  S
C801        O809   1.262       .  A
C802        O807   1.266       .  A
C802        O805   1.262       .  A
Cd803      O1112   2.465   1_545  S
Cd803      O1122   2.487   1_545  S
Cd803       O809   2.455       .  S
Cd803      O1120   2.506   1_545  S
Cd803      O1116   2.434   1_545  S
Cd803       O807   2.445       .  S
Cd803       O805   2.487       .  S
O804      Cd1115   2.434       .  S
C806        O810   1.268       .  A
O808      Cd1115   2.506       .  S
O810      Cd1115   2.487       .  S
C811        C819   1.535       .  S
C811        C831   1.548       .  S
C811        C853   1.549       .  S
C811        C916   1.562       .  S
C812        C823   1.543       .  S
C812        C829   1.529       .  S
C812        C856   1.550       .  S
C812        C904   1.564       .  S
C813        C818   1.539       .  S
C813        C832   1.553       .  S
C813        C841   1.552       .  S
C813        C868   1.563       .  S
C814        C816   1.541       .  S
C814        C836   1.531       .  S
C814        C844   1.553       .  S
C814        C880   1.565       .  S
O815        C818   1.266       .  A
O815       Cd820   2.461       .  S
C816        O825   1.262       .  A
C816        O821   1.267       .  A
O817        C823   1.267       .  A
O817       Cd820   2.426       .  S
C818        O826   1.267       .  A
C819        O824   1.266       .  A
C819        O822   1.263       .  A
Cd820       O827   2.568       .  S
Cd820       O826   2.525       .  S
Cd820      O1137   2.528   1_545  S
Cd820      O1133   2.457   1_545  S
Cd820      O1136   2.510   1_545  S
Cd820      O1134   2.483   1_545  S
O821      Cd1132   2.457       .  S
O822      Cd1132   2.483       .  S
C823        O827   1.266       .  A
O824      Cd1132   2.510       .  S
O825      Cd1132   2.528       .  S
O828        C831   1.267   1_455  A
C829        O838   1.264       .  A
C829        O834   1.270       .  A
O830        C836   1.268       .  A
O830       Cd833   2.469       .  S
C831        O839   1.265       .  A
C832        O837   1.269       .  A
C832        O835   1.266       .  A
Cd833       O840   2.501       .  S
Cd833       O838   2.520       .  S
Cd833       O834   2.457       .  S
C836        O840   1.263       .  A
C841        C842   1.412       .  A
C841        C846   1.427       .  A
C842        C843   1.392       .  A
C842        H851   1.081       .  S
C843        C844   1.415       .  A
C843        S847   1.793       .  S
C844        C845   1.402       .  A
C845        C846   1.397       .  A
C845        H852   1.075       .  S
C846        S848   1.807       .  S
S847        H850   1.402       .  S
S848        H849   1.408       .  S
C854        C855   1.396   1_565  A
C854       H1175   1.083       .  S
C855        C856   1.419       .  A
C855        S859   1.801       .  S
C856        C857   1.407       .  A
C857        C858   1.393       .  A
C857        H864   1.079       .  S
S859        H862   1.402       .  S
S860       H1173   1.407       .  S
H861       S1172   1.407       .  S
H863       C1166   1.083       .  S
C865        C866   1.418       .  A
C865        C870   1.428       .  A
C866        C867   1.414       .  A
C866        H875   1.082       .  S
C867        C868   1.424       .  A
C867        S871   1.801       .  S
C868        C869   1.409       .  A
C869        C870   1.391       .  A
C869        H876   1.081       .  S
C870        S872   1.813       .  S
S871        H874   1.408       .  S
S872        H873   1.391       .  S
C877        C878   1.419       .  A
C877        C882   1.429       .  A
C878        C879   1.415       .  A
C878        H887   1.080       .  S
C879        C880   1.425       .  A
C879        S883   1.801       .  S
C880        C881   1.408       .  A
C881        C882   1.391       .  A
C881        H888   1.082       .  S
C882        S884   1.812       .  S
S883        H886   1.405       .  S
S884        H885   1.387       .  S
C889        C890   1.410       .  A
C889        C894   1.421       .  A
C890        C891   1.394       .  A
C890        H899   1.073       .  S
C891        C892   1.427       .  A
C891        S895   1.799       .  S
C892        C893   1.408       .  A
C893        C894   1.391       .  A
C893        H900   1.080       .  S
C894        S896   1.792       .  S
S895        H898   1.405       .  S
S896        H897   1.383       .  S
C902        C903   1.414       .  A
C903        C904   1.423       .  A
C903        S907   1.799       .  S
C904        C905   1.407       .  A
C905        C906   1.387       .  A
C905        H912   1.082       .  S
S907        H910   1.408       .  S
S908        H909   1.388       .  S
C914        C915   1.409       .  A
C915        C916   1.421       .  A
C915        S919   1.790       .  S
C916        C917   1.408       .  A
C917        C918   1.391       .  A
C917        H924   1.084   1_655  S
S919        H922   1.406       .  S
S920        H921   1.390       .  S
C926        C927   1.395       .  A
C926       H1247   1.077       .  S
C927        C928   1.422       .  A
C927        S931   1.804       .  S
C928        C929   1.413       .  A
C929        C930   1.391   1_545  A
C929        H936   1.074       .  S
S931        H934   1.408       .  S
S932       H1245   1.404   1_455  S
H933       S1244   1.404   1_655  S
H935       C1238   1.077       .  S
C937        C945   1.537       .  S
C937        C955   1.529       .  S
C937       C1069   1.564       .  S
C937       C1081   1.556       .  S
C938        C949   1.531       .  S
C938        C957   1.538       .  S
C938       C1057   1.562       .  S
C938       C1084   1.554       .  S
C939        C944   1.529       .  S
C939        C962   1.542       .  S
C939       C1033   1.565       .  S
C939       C1045   1.557       .  S
C940        C942   1.537       .  S
C940        C958   1.524       .  S
C940       C1021   1.566       .  S
C940       C1048   1.561       .  S
O941        C944   1.266       .  A
O941       Cd946   2.483       .  S
C942        O951   1.261       .  A
C942        O947   1.266       .  A
O943        C949   1.267       .  A
O943       Cd946   2.502       .  S
C944        O952   1.266       .  A
C945        O950   1.267       .  A
C945        O948   1.259       .  A
Cd946       O953   2.421       .  S
Cd946       O952   2.448       .  S
C949        O953   1.268       .  A
O954        C957   1.265       .  A
O954       Cd959   2.484       .  S
C955        O964   1.267       .  A
C955        O960   1.269       .  A
O956        C962   1.267       .  A
C957        O965   1.262       .  A
C958        O963   1.266       .  A
C958        O961   1.262       .  A
Cd959       O965   2.455       .  S
Cd959       O963   2.445       .  S
Cd959       O961   2.487       .  S
C962        O966   1.268       .  A
C967        C975   1.535       .  S
C967        C987   1.548       .  S
C967       C1009   1.549       .  S
C967       C1072   1.562       .  S
C968        C979   1.543       .  S
C968        C985   1.529       .  S
C968       C1012   1.550       .  S
C968       C1060   1.564       .  S
C969        C974   1.539       .  S
C969        C988   1.553       .  S
C969        C997   1.552       .  S
C969       C1024   1.563       .  S
C970        C972   1.541       .  S
C970        C992   1.531       .  S
C970       C1000   1.553       .  S
C970       C1036   1.565       .  S
O971        C974   1.266       .  A
O971       Cd976   2.461       .  S
C972        O981   1.262       .  A
C972        O977   1.267       .  A
O973        C979   1.267       .  A
O973       Cd976   2.426       .  S
C974        O982   1.267       .  A
C975        O980   1.266       .  A
C975        O978   1.263       .  A
Cd976       O983   2.568       .  S
Cd976       O982   2.525       .  S
C979        O983   1.266       .  A
O984        C987   1.267   1_455  A
C985        O994   1.264       .  A
C985        O990   1.270       .  A
O986        C992   1.268       .  A
O986       Cd989   2.469       .  S
C987        O995   1.265       .  A
C988        O993   1.269       .  A
C988        O991   1.266       .  A
Cd989       O996   2.501       .  S
Cd989       O994   2.520       .  S
Cd989       O990   2.457       .  S
C992        O996   1.263       .  A
C997        C998   1.412       .  A
C997       C1002   1.427       .  A
C998        C999   1.392       .  A
C998       H1007   1.081       .  S
C999       C1000   1.415       .  A
C999       S1003   1.793       .  S
C1000      C1001   1.402       .  A
C1001      C1002   1.397       .  A
C1001      H1008   1.075       .  S
C1002      S1004   1.807       .  S
S1003      H1006   1.402       .  S
S1004      H1005   1.408       .  S
C1010      C1011   1.396       .  A
C1011      C1012   1.419       .  A
C1011      S1015   1.801       .  S
C1012      C1013   1.407       .  A
C1013      C1014   1.393       .  A
C1013      H1020   1.079       .  S
S1015      H1018   1.402       .  S
C1021      C1022   1.418       .  A
C1021      C1026   1.428       .  A
C1022      C1023   1.414       .  A
C1022      H1031   1.082       .  S
C1023      C1024   1.424       .  A
C1023      S1027   1.801       .  S
C1024      C1025   1.409       .  A
C1025      C1026   1.391       .  A
C1025      H1032   1.081       .  S
C1026      S1028   1.813       .  S
S1027      H1030   1.408       .  S
S1028      H1029   1.391       .  S
C1033      C1034   1.419       .  A
C1033      C1038   1.429       .  A
C1034      C1035   1.415       .  A
C1034      H1043   1.080       .  S
C1035      C1036   1.425       .  A
C1035      S1039   1.801       .  S
C1036      C1037   1.408       .  A
C1037      C1038   1.391       .  A
C1037      H1044   1.082       .  S
C1038      S1040   1.812       .  S
S1039      H1042   1.405       .  S
S1040      H1041   1.387       .  S
C1045      C1046   1.410       .  A
C1045      C1050   1.421       .  A
C1046      C1047   1.394       .  A
C1046      H1055   1.073       .  S
C1047      C1048   1.427       .  A
C1047      S1051   1.799       .  S
C1048      C1049   1.408       .  A
C1049      C1050   1.391       .  A
C1049      H1056   1.080       .  S
C1050      S1052   1.792       .  S
S1051      H1054   1.405       .  S
S1052      H1053   1.383       .  S
C1057      C1214   1.417       .  A
C1057      C1218   1.428       .  A
C1058      C1213   1.417   1_554  A
C1058      C1059   1.414       .  A
C1058      H1223   1.079   1_554  S
C1059      C1060   1.423       .  A
C1059      S1063   1.799       .  S
C1060      C1061   1.407       .  A
C1061      C1062   1.387       .  A
C1061      H1068   1.082       .  S
C1062      C1213   1.428   1_554  A
C1062      S1220   1.811   1_554  S
S1063      H1066   1.408       .  S
S1064      C1218   1.811       .  S
S1064      H1065   1.388       .  S
H1067      C1214   1.079       .  S
C1069      C1226   1.414       .  A
C1069      C1230   1.430       .  A
C1070      C1225   1.414       .  A
C1070      C1071   1.409   1_556  A
C1070      H1235   1.083       .  S
C1071      C1072   1.421       .  A
C1071      S1075   1.790       .  S
C1072      C1073   1.408       .  A
C1073      C1074   1.391       .  A
C1073      H1080   1.084   1_655  S
C1074      C1225   1.430   1_554  A
S1075      H1078   1.406       .  S
S1076      H1077   1.390       .  S
H1079      C1226   1.083       .  S
C1082      C1083   1.395       .  A
C1083      C1084   1.422       .  A
C1083      S1087   1.804       .  S
C1084      C1085   1.413       .  A
C1085      C1086   1.391       .  A
C1085      H1092   1.074       .  S
S1087      H1090   1.408       .  S
C1093      C1101   1.537       .  S
C1093      C1111   1.529       .  S
C1093      C1225   1.564       .  S
C1093      C1237   1.556       .  S
C1094      C1105   1.531       .  S
C1094      C1113   1.538       .  S
C1094      C1213   1.562       .  S
C1094      C1240   1.554       .  S
C1095      C1100   1.529       .  S
C1095      C1118   1.542       .  S
C1095      C1189   1.565       .  S
C1095      C1201   1.557       .  S
C1096      C1098   1.537       .  S
C1096      C1114   1.524       .  S
C1096      C1177   1.566       .  S
C1096      C1204   1.561       .  S
O1097      C1100   1.266       .  A
O1097     Cd1102   2.483       .  S
C1098      O1107   1.261       .  A
C1098      O1103   1.266       .  A
O1099      C1105   1.267       .  A
O1099     Cd1102   2.502       .  S
C1100      O1108   1.266       .  A
C1101      O1106   1.267       .  A
C1101      O1104   1.259       .  A
Cd1102     O1109   2.421       .  S
Cd1102     O1108   2.448       .  S
C1105      O1109   1.268       .  A
O1110      C1113   1.265       .  A
O1110     Cd1115   2.484       .  S
C1111      O1120   1.267       .  A
C1111      O1116   1.269       .  A
O1112      C1118   1.267       .  A
C1113      O1121   1.262       .  A
C1114      O1119   1.266       .  A
C1114      O1117   1.262       .  A
Cd1115     O1121   2.455       .  S
Cd1115     O1119   2.445       .  S
Cd1115     O1117   2.487       .  S
C1118      O1122   1.268       .  A
C1123      C1131   1.535       .  S
C1123      C1143   1.548       .  S
C1123      C1165   1.549       .  S
C1123      C1228   1.562       .  S
C1124      C1135   1.543       .  S
C1124      C1141   1.529       .  S
C1124      C1168   1.550       .  S
C1124      C1216   1.564       .  S
C1125      C1130   1.539       .  S
C1125      C1144   1.553       .  S
C1125      C1153   1.552       .  S
C1125      C1180   1.563       .  S
C1126      C1128   1.541       .  S
C1126      C1148   1.531       .  S
C1126      C1156   1.553       .  S
C1126      C1192   1.565       .  S
O1127      C1130   1.266       .  A
O1127     Cd1132   2.461       .  S
C1128      O1137   1.262       .  A
C1128      O1133   1.267       .  A
O1129      C1135   1.267       .  A
O1129     Cd1132   2.426       .  S
C1130      O1138   1.267       .  A
C1131      O1136   1.266       .  A
C1131      O1134   1.263       .  A
Cd1132     O1139   2.568       .  S
Cd1132     O1138   2.525       .  S
C1135      O1139   1.266       .  A
O1140      C1143   1.267   1_455  A
C1141      O1150   1.264       .  A
C1141      O1146   1.270       .  A
O1142      C1148   1.268       .  A
O1142     Cd1145   2.469       .  S
C1143      O1151   1.265       .  A
C1144      O1149   1.269       .  A
C1144      O1147   1.266       .  A
Cd1145     O1152   2.501       .  S
Cd1145     O1150   2.520       .  S
Cd1145     O1146   2.457       .  S
C1148      O1152   1.263       .  A
C1153      C1154   1.412       .  A
C1153      C1158   1.427       .  A
C1154      C1155   1.392       .  A
C1154      H1163   1.081       .  S
C1155      C1156   1.415       .  A
C1155      S1159   1.793       .  S
C1156      C1157   1.402       .  A
C1157      C1158   1.397       .  A
C1157      H1164   1.075       .  S
C1158      S1160   1.807       .  S
S1159      H1162   1.402       .  S
S1160      H1161   1.408       .  S
C1166      C1167   1.396       .  A
C1167      C1168   1.419       .  A
C1167      S1171   1.801       .  S
C1168      C1169   1.407       .  A
C1169      C1170   1.393       .  A
C1169      H1176   1.079       .  S
S1171      H1174   1.402       .  S
C1177      C1178   1.418       .  A
C1177      C1182   1.428       .  A
C1178      C1179   1.414       .  A
C1178      H1187   1.082       .  S
C1179      C1180   1.424       .  A
C1179      S1183   1.801       .  S
C1180      C1181   1.409       .  A
C1181      C1182   1.391       .  A
C1181      H1188   1.081       .  S
C1182      S1184   1.813       .  S
S1183      H1186   1.408       .  S
S1184      H1185   1.391       .  S
C1189      C1190   1.419       .  A
C1189      C1194   1.429       .  A
C1190      C1191   1.415       .  A
C1190      H1199   1.080       .  S
C1191      C1192   1.425       .  A
C1191      S1195   1.801       .  S
C1192      C1193   1.408       .  A
C1193      C1194   1.391       .  A
C1193      H1200   1.082       .  S
C1194      S1196   1.812       .  S
S1195      H1198   1.405       .  S
S1196      H1197   1.387       .  S
C1201      C1202   1.410       .  A
C1201      C1206   1.421       .  A
C1202      C1203   1.394       .  A
C1202      H1211   1.073       .  S
C1203      C1204   1.427       .  A
C1203      S1207   1.799       .  S
C1204      C1205   1.408       .  A
C1205      C1206   1.391       .  A
C1205      H1212   1.080       .  S
C1206      S1208   1.792       .  S
S1207      H1210   1.405       .  S
S1208      H1209   1.383       .  S
C1214      C1215   1.414       .  A
C1215      C1216   1.423       .  A
C1215      S1219   1.799       .  S
C1216      C1217   1.407       .  A
C1217      C1218   1.387       .  A
C1217      H1224   1.082       .  S
S1219      H1222   1.408       .  S
S1220      H1221   1.388       .  S
C1226      C1227   1.409       .  A
C1227      C1228   1.421       .  A
C1227      S1231   1.790       .  S
C1228      C1229   1.408       .  A
C1229      C1230   1.391       .  A
C1229      H1236   1.084   1_655  S
S1231      H1234   1.406       .  S
S1232      H1233   1.390       .  S
C1238      C1239   1.395       .  A
C1239      C1240   1.422       .  A
C1239      S1243   1.804       .  S
C1240      C1241   1.413       .  A
C1241      C1242   1.391       .  A
C1241      H1248   1.074       .  S
S1243      H1246   1.408       .  S
