geometry optimzed in LAMMPS
_audit_creation_date              2020-11-30 
_audit_creation_method            'lammps2cif' 
_symmetry_space_group_name_H-M    'P1' 
_symmetry_Int_Tables_number       1 
_symmetry_cell_setting            triclinic 
loop_ 
_symmetry_equiv_pos_as_xyz 
  x,y,z 
_cell_length_a                    41.02875943 
_cell_length_b                    40.92374534915016 
_cell_length_c                    29.33874411811409 
_cell_angle_alpha                 90.0067437046821 
_cell_angle_beta                  90.06127840086714 
_cell_angle_gamma                 89.92690855500474 
loop_ 
_atom_site_label 
_atom_site_type_symbol 
_atom_site_fract_x 
_atom_site_fract_y 
_atom_site_fract_z 
_atom_site_charge 
O1          O  0.79425649  0.71789399  0.74051722    -0.72000
O2          O  0.75953969  0.78803468  0.82454834    -0.73000
O3          O  0.76004340  0.71727920  0.82457642    -0.61600
O4          O  0.79323231  0.78790388  0.74006125    -0.70000
O5          O  0.74530111  0.78778396  0.70492999    -0.69600
O6          O  0.71209543  0.71794426  0.78945351    -0.60800
O7          O  0.71165013  0.78751659  0.78931162    -0.73400
O8          O  0.74626694  0.71691102  0.70561334    -0.72100
Cu9        Cu  0.77838210  0.75282125  0.78381730     1.04600
Cu10       Cu  0.72725282  0.75253202  0.74593469     1.04300
C11         C  0.77524158  0.70570025  0.71053662     0.94200
C12         C  0.73061928  0.79927559  0.81972113     0.93300
C13         C  0.73113155  0.70605953  0.81962296     0.85500
C14         C  0.77402287  0.79941290  0.70969317     0.91700
O15         O  0.20777987  0.78444689  0.73182366    -0.72000
O16         O  0.24379873  0.71546796  0.81685526    -0.73000
O17         O  0.24432424  0.78611325  0.81375600    -0.61600
O18         O  0.20720723  0.71422065  0.73476338    -0.70000
O19         O  0.25407472  0.71265309  0.69716340    -0.69600
O20         O  0.29121971  0.78447418  0.77615940    -0.60800
O21         O  0.29067425  0.71484173  0.77916847    -0.73400
O22         O  0.25469834  0.78380226  0.69428474    -0.72100
Cu23       Cu  0.22420704  0.75009266  0.77574551     1.04600
Cu24       Cu  0.27418289  0.74887206  0.73515647     1.04300
C25         C  0.22619776  0.79577268  0.70049415     0.94200
C26         C  0.27249724  0.70391232  0.81100017     0.93300
C27         C  0.27308929  0.79711791  0.80680428     0.85500
C28         C  0.22539691  0.70142595  0.70425885     0.91700
O29         O  0.96405239  0.45507687  0.48413018    -0.72000
O30         O  0.03308337  0.49098343  0.56864814    -0.73000
O31         O  0.96222843  0.49167899  0.56676982    -0.61600
O32         O  0.03368168  0.45471223  0.48641977    -0.70000
O33         O  0.03506977  0.50213531  0.44976626    -0.69600
O34         O  0.96369194  0.53884865  0.52955034    -0.60800
O35         O  0.03308297  0.53833366  0.53172522    -0.73400
O36         O  0.96445303  0.50233247  0.44701446    -0.72100
Cu37       Cu  0.99816604  0.47152623  0.52799828     1.04600
Cu38       Cu  0.99904105  0.52192435  0.48801786     1.04300
C39         C  0.95300548  0.47352000  0.45258178     0.94200
C40         C  0.04461180  0.51973495  0.56272279     0.93300
C41         C  0.95137500  0.52071719  0.56044842     0.85500
C42         C  0.04635733  0.47334357  0.45635496     0.91700
N43         N  0.87341654  0.53361221  0.61630770    -0.26400
N44         N  0.88337403  0.56433641  0.61440338    -0.34200
C45         C  0.91365189  0.56465837  0.59614065     0.02000
C46         C  0.92318563  0.53260491  0.58721002     0.08000
C47         C  0.89706736  0.51376549  0.60075197    -0.05100
H48         H  0.92719414  0.58659324  0.58819875     0.08700
H49         H  0.89422797  0.48773681  0.59563311     0.09900
Cu50       Cu  0.85316049  0.60394332  0.63417938     0.44200
Cu51       Cu  0.82570497  0.51968289  0.62804360     0.42000
Cu52       Cu  0.76658335  0.58365621  0.62914818     0.43900
N53         N  0.81531869  0.63617721  0.65435290    -0.33800
N54         N  0.78408708  0.62883814  0.64942386    -0.28000
C55         C  0.76567607  0.65327685  0.66605016    -0.04100
C56         C  0.78592379  0.67723940  0.68315031     0.08100
C57         C  0.81733998  0.66554627  0.67541707     0.01900
H58         H  0.73937825  0.65251549  0.66860137     0.09500
H59         H  0.83990692  0.67704442  0.68571221     0.08600
N60         N  0.75419870  0.53486214  0.62206030    -0.35200
N61         N  0.77608102  0.51119232  0.62358874    -0.27400
C62         C  0.76086769  0.48227196  0.61967017    -0.02600
C63         C  0.72773200  0.48796956  0.61547839     0.06000
C64         C  0.72438389  0.52164801  0.61703340     0.04100
H65         H  0.77313051  0.45885887  0.61898033     0.09200
H66         H  0.70194470  0.53551240  0.61541854     0.08000
N67         N  0.21515338  0.62371343  0.64539711    -0.26400
N68         N  0.18411421  0.63103514  0.65239533    -0.34200
C69         C  0.18261857  0.66047706  0.67326596     0.02000
C70         C  0.21414630  0.67234752  0.67868477     0.08000
C71         C  0.23396887  0.64833752  0.66052978    -0.05100
H72         H  0.16033720  0.67203847  0.68463692     0.08700
H73         H  0.26033785  0.64784663  0.66094241     0.09900
Cu74       Cu  0.14567864  0.59926947  0.63425608     0.44200
Cu75       Cu  0.23179047  0.57857580  0.62286908     0.42000
Cu76       Cu  0.17154601  0.51524592  0.62220749     0.43900
N77         N  0.11423583  0.56078278  0.61523810    -0.33800
N78         N  0.12377760  0.52989652  0.61510177    -0.28000
C79         C  0.09935956  0.51081929  0.60025755    -0.04100
C80         C  0.07311601  0.53042864  0.58943968     0.08100
C81         C  0.08341510  0.56207473  0.59900083     0.01900
H82         H  0.10174181  0.48495563  0.59328804     0.09500
H83         H  0.07008457  0.58442150  0.59251181     0.08600
N84         N  0.22060522  0.50640445  0.61368982    -0.35200
N85         N  0.24288620  0.52964964  0.61234331    -0.27400
C86         C  0.27233312  0.51581782  0.60620116    -0.02600
C87         C  0.26824505  0.48224527  0.60375847     0.06000
C88         C  0.23510703  0.47723290  0.60843627     0.04100
H89         H  0.29509418  0.52911773  0.60531673     0.09200
H90         H  0.22238940  0.45409287  0.60817990     0.08000
O91         O  0.03474174  0.03977002  0.47524827    -0.72000
O92         O  0.96489586  0.00329721  0.55785723    -0.73000
O93         O  0.03553405  0.00382751  0.55772281    -0.61600
O94         O  0.96532599  0.03909685  0.47538520    -0.70000
O95         O  0.96475232  0.99165399  0.43864615    -0.69600
O96         O  0.03522518  0.95635508  0.52108550    -0.60800
O97         O  0.96556823  0.95580518  0.52134962    -0.73400
O98         O  0.03563693  0.99241775  0.43841143    -0.72100
Cu99       Cu  0.00010959  0.02302895  0.51799820     1.04600
Cu100      Cu  0.00031922  0.97247089  0.47834822     1.04300
C101        C  0.04679443  0.02134778  0.44444208     0.94200
C102        C  0.95364733  0.97441653  0.55209480     0.93300
C103        C  0.04702458  0.97506363  0.55175393     0.85500
C104        C  0.95333456  0.02042790  0.44485920     0.91700
N105        N  0.21680999  0.87219580  0.63805769    -0.26400
N106        N  0.18573062  0.86481099  0.64432795    -0.34200
C107        C  0.18397817  0.83577886  0.66613664     0.02000
C108        C  0.21541423  0.82409333  0.67294710     0.08000
C109        C  0.23546461  0.84784093  0.65459667    -0.05100
H110        H  0.16156446  0.82449084  0.67742702     0.08700
H111        H  0.26180425  0.84849983  0.65619441     0.09900
Cu112      Cu  0.14754843  0.89606902  0.62480225     0.44200
Cu113      Cu  0.23334154  0.91769169  0.61598592     0.42000
Cu114      Cu  0.17289727  0.98092458  0.61798881     0.43900
N115        N  0.11650118  0.93442644  0.60529153    -0.33800
N116        N  0.12550021  0.96544646  0.60685814    -0.28000
C117        C  0.10106571  0.98433010  0.59138878    -0.04100
C118        C  0.07555977  0.96442456  0.57842227     0.08100
C119        C  0.08619652  0.93284622  0.58740223     0.01900
H120        H  0.10293587  0.01040714  0.58588669     0.09500
H121        H  0.07343075  0.91038903  0.57973056     0.08600
N122        N  0.22233819  0.99038979  0.61194209    -0.35200
N123        N  0.24459587  0.96713118  0.60900495    -0.27400
C124        C  0.27407056  0.98107532  0.60355644    -0.02600
C125        C  0.27020488  0.01480712  0.60318897     0.06000
C126        C  0.23697217  0.01968236  0.60852461     0.04100
H127        H  0.29672037  0.96762765  0.60125486     0.09200
H128        H  0.22419351  0.04281220  0.60911102     0.08000
N129        N  0.87574423  0.96478651  0.60905391    -0.26400
N130        N  0.88471851  0.93377788  0.60763915    -0.34200
C131        C  0.91480480  0.93205797  0.58897549     0.02000
C132        C  0.92528019  0.96362950  0.57923583     0.08000
C133        C  0.89987145  0.98357671  0.59267721    -0.05100
H134        H  0.92749845  0.90954037  0.58127899     0.08700
H135        H  0.89778522  0.00960156  0.58681587     0.09900
Cu136      Cu  0.85283078  0.89642480  0.62822629     0.44200
Cu137      Cu  0.82823460  0.97964963  0.62002597     0.42000
Cu138      Cu  0.76593742  0.91818688  0.61661302     0.43900
N139        N  0.81397188  0.86669068  0.64956760    -0.33800
N140        N  0.78284486  0.87390076  0.64277243    -0.28000
C141        C  0.76424936  0.85021995  0.66108973    -0.04100
C142        C  0.78441334  0.82720807  0.68109879     0.08100
C143        C  0.81577887  0.83850233  0.67335178     0.01900
H144        H  0.73789640  0.85080676  0.66233243     0.09500
H145        H  0.83823523  0.82747138  0.68513265     0.08600
N146        N  0.75665564  0.96753301  0.60445572    -0.35200
N147        N  0.77957986  0.99000767  0.60839932    -0.27400
C148        C  0.76645072  0.01965385  0.60135380    -0.02600
C149        C  0.73353565  0.01591023  0.59251092     0.06000
C150        C  0.72817398  0.98243227  0.59457896     0.04100
H151        H  0.78003652  0.04227878  0.60229601     0.09200
H152        H  0.70509981  0.96994526  0.59084190     0.08000
O153        O  0.53730091  0.54400252  0.98367306    -0.72000
O154        O  0.46764817  0.50707464  0.06599674    -0.73000
O155        O  0.53834257  0.50664437  0.06493441    -0.61600
O156        O  0.46783222  0.54447133  0.98469483    -0.70000
O157        O  0.46687414  0.49768858  0.94637224    -0.69600
O158        O  0.53712375  0.45987658  0.02661352    -0.60800
O159        O  0.46766542  0.46036210  0.02753104    -0.73400
O160        O  0.53734222  0.49719346  0.94541426    -0.72100
Cu161      Cu  0.50280499  0.52710659  0.02637729     1.04600
Cu162      Cu  0.50223490  0.47726430  0.98495935     1.04300
C163        C  0.54884282  0.52584439  0.95217094     0.94200
C164        C  0.45610625  0.47843176  0.05910494     0.93300
C165        C  0.54940325  0.47783008  0.05776316     0.85500
C166        C  0.45567978  0.52643008  0.95352628     0.91700
N167        N  0.72053607  0.62857179  0.87769096    -0.26400
N168        N  0.68963449  0.63702071  0.87230073    -0.34200
C169        C  0.68852190  0.66696884  0.85317791     0.02000
C170        C  0.72020166  0.67795623  0.84699057     0.08000
C171        C  0.73977226  0.65301522  0.86311855    -0.05100
H172        H  0.66638242  0.67910640  0.84237127     0.08700
H173        H  0.76603804  0.65147675  0.86056739     0.09900
Cu174      Cu  0.65075788  0.60560816  0.88709004     0.44200
Cu175      Cu  0.73575357  0.58183731  0.89456406     0.42000
Cu176      Cu  0.67432001  0.51993129  0.88611446     0.43900
N177        N  0.61868269  0.56712895  0.90131431    -0.33800
N178        N  0.62704406  0.53604658  0.89694500    -0.28000
C179        C  0.60221013  0.51708235  0.91066015    -0.04100
C180        C  0.57713303  0.53694232  0.92544313     0.08100
C181        C  0.58840711  0.56860268  0.91919978     0.01900
H182        H  0.60366489  0.49080467  0.91425037     0.09500
H183        H  0.57626786  0.59094677  0.92927111     0.08600
N184        N  0.72342624  0.50944055  0.89468057    -0.35200
N185        N  0.74582876  0.53234450  0.89934994    -0.27400
C186        C  0.77490811  0.51811781  0.90668617    -0.02600
C187        C  0.77069848  0.48451356  0.90684633     0.06000
C188        C  0.73764513  0.47996012  0.89909734     0.04100
H189        H  0.79750190  0.53136983  0.91088103     0.09200
H190        H  0.72466878  0.45698681  0.89788048     0.08000
N191        N  0.28375660  0.62934074  0.87638557    -0.26400
N192        N  0.31464274  0.63703555  0.86907371    -0.34200
C193        C  0.31566414  0.66568994  0.84631907     0.02000
C194        C  0.28396603  0.67665298  0.83978108     0.08000
C195        C  0.26450747  0.65304943  0.85948238    -0.05100
H196        H  0.33772787  0.67700355  0.83379988     0.08700
H197        H  0.23817817  0.65182654  0.85822984     0.09900
Cu198      Cu  0.35363280  0.60634836  0.88690851     0.44200
Cu199      Cu  0.26793862  0.58398018  0.89889307     0.42000
Cu200      Cu  0.32883500  0.52168257  0.89225015     0.43900
N201        N  0.38541312  0.56799566  0.90366926    -0.33800
N202        N  0.37635675  0.53701677  0.90173535    -0.28000
C203        C  0.40106921  0.51791584  0.91562431    -0.04100
C204        C  0.42689454  0.53760235  0.92788883     0.08100
C205        C  0.41613809  0.56932294  0.92015870     0.01900
H206        H  0.39922188  0.49179399  0.92071710     0.09500
H207        H  0.42907741  0.59166211  0.92793146     0.08600
N208        N  0.27968887  0.51159738  0.89909767    -0.35200
N209        N  0.25729752  0.53454693  0.90400861    -0.27400
C210        C  0.22806262  0.52026831  0.90981821    -0.02600
C211        C  0.23230775  0.48667662  0.90826594     0.06000
C212        C  0.26537644  0.48211767  0.90142454     0.04100
H213        H  0.20533343  0.53338190  0.91382135     0.09200
H214        H  0.27822525  0.45907512  0.89915139     0.08000
O215        O  0.75857507  0.21145057  0.19095547    -0.72000
O216        O  0.79202499  0.28296940  0.27417572    -0.73000
O217        O  0.79253298  0.21307749  0.27544049    -0.61600
O218        O  0.75808545  0.28266839  0.18991334    -0.70000
O219        O  0.71011952  0.28207469  0.22476876    -0.69600
O220        O  0.74473753  0.21311783  0.31077233    -0.60800
O221        O  0.74402199  0.28387221  0.30893354    -0.73400
O222        O  0.71086340  0.21207092  0.22646237    -0.72100
Cu223      Cu  0.77690505  0.24751692  0.23119068     1.04600
Cu224      Cu  0.72585334  0.24775372  0.26906014     1.04300
C225        C  0.72982116  0.19993483  0.19635280     0.94200
C226        C  0.77286398  0.29520693  0.30396230     0.93300
C227        C  0.77362535  0.20174797  0.30617841     0.85500
C228        C  0.72919076  0.29404151  0.19472697     0.91700
O229        O  0.53411468  0.99358819  0.06481797    -0.72000
O230        O  0.46433033  0.95860289  0.98121433    -0.73000
O231        O  0.53365682  0.95829359  0.98246917    -0.61600
O232        O  0.46341623  0.99392989  0.06441822    -0.70000
O233        O  0.46442768  0.04154043  0.02818020    -0.69600
O234        O  0.53498905  0.00599980  0.94641416    -0.60800
O235        O  0.46436337  0.00627219  0.94505220    -0.73400
O236        O  0.53384011  0.04129181  0.02874008    -0.72100
Cu237      Cu  0.49878296  0.97452594  0.02467565     1.04600
Cu238      Cu  0.49932604  0.02534435  0.98559477     1.04300
C239        C  0.54578459  0.02227747  0.05892079     0.94200
C240        C  0.45294962  0.97744505  0.95038761     0.93300
C241        C  0.54633758  0.97721712  0.95285991     0.85500
C242        C  0.45242826  0.02292917  0.05878225     0.91700
N243        N  0.28359396  0.87505402  0.86388797    -0.26400
N244        N  0.31463097  0.86724979  0.85786445    -0.34200
C245        C  0.31604238  0.83743781  0.83813843     0.02000
C246        C  0.28445182  0.82591629  0.83249023     0.08000
C247        C  0.26469740  0.85036962  0.84937770    -0.05100
H248        H  0.33829644  0.82548117  0.82746512     0.08700
H249        H  0.23834779  0.85118676  0.84822363     0.09900
Cu250      Cu  0.35329055  0.89856057  0.87540058     0.44200
Cu251      Cu  0.26646896  0.92041737  0.88431508     0.42000
Cu252      Cu  0.32601917  0.98200519  0.89425182     0.43900
N253        N  0.38412029  0.93694369  0.89561942    -0.33800
N254        N  0.37401531  0.96760644  0.89800123    -0.28000
C255        C  0.39817037  0.98655235  0.91380039    -0.04100
C256        C  0.42473594  0.96704754  0.92308447     0.08100
C257        C  0.41503622  0.93560902  0.91142476     0.01900
H258        H  0.39532997  0.01204722  0.92278421     0.09500
H259        H  0.42875166  0.91329629  0.91640899     0.08600
N260        N  0.27720200  0.99092904  0.90490365    -0.35200
N261        N  0.25464582  0.96827896  0.90043550    -0.27400
C262        C  0.22527433  0.98173641  0.90852362    -0.02600
C263        C  0.22958420  0.01458900  0.91931660     0.06000
C264        C  0.26309574  0.01919525  0.91700320     0.04100
H265        H  0.20258743  0.96851897  0.90569452     0.09200
H266        H  0.27668234  0.04121129  0.92401199     0.08000
N267        N  0.72107931  0.87469504  0.88397593    -0.26400
N268        N  0.69000273  0.86726369  0.87755923    -0.34200
C269        C  0.68835363  0.83843393  0.85527073     0.02000
C270        C  0.71982903  0.82710087  0.84800957     0.08000
C271        C  0.73981192  0.85065668  0.86688440    -0.05100
H272        H  0.66598302  0.82718475  0.84367065     0.08700
H273        H  0.76614969  0.85142798  0.86538712     0.09900
Cu274      Cu  0.65140662  0.89830221  0.89588225     0.44200
Cu275      Cu  0.73801688  0.91932751  0.90814489     0.42000
Cu276      Cu  0.67795916  0.98115408  0.92134634     0.43900
N277        N  0.61951431  0.93681389  0.91146067    -0.33800
N278        N  0.62956096  0.96729482  0.91664869    -0.28000
C279        C  0.60400588  0.98641126  0.92703070    -0.04100
C280        C  0.57647703  0.96718053  0.92969568     0.08100
C281        C  0.58720432  0.93573129  0.92003945     0.01900
H282        H  0.60598822  0.01177420  0.93709994     0.09500
H283        H  0.57298546  0.91351800  0.92172434     0.08600
N284        N  0.72717573  0.98977243  0.93146198    -0.35200
N285        N  0.74967301  0.96708412  0.92589198    -0.27400
C286        C  0.77924998  0.98062132  0.93203383    -0.02600
C287        C  0.77525451  0.01359031  0.94234566     0.06000
C288        C  0.74167332  0.01819278  0.94206357     0.04100
H289        H  0.80190571  0.96751544  0.92757337     0.09200
H290        H  0.72842610  0.04050655  0.94876460     0.08000
O291        O  0.24465039  0.28778356  0.19387157    -0.72000
O292        O  0.21007756  0.21566097  0.27461416    -0.73000
O293        O  0.20985119  0.28548981  0.27751651    -0.61600
O294        O  0.24518132  0.21721492  0.19120701    -0.70000
O295        O  0.29263844  0.21726902  0.22762971    -0.69600
O296        O  0.25740330  0.28521085  0.31366606    -0.60800
O297        O  0.25760409  0.21439640  0.31073999    -0.73400
O298        O  0.29216938  0.28671172  0.23004744    -0.72100
Cu299      Cu  0.22583364  0.25156744  0.23290986     1.04600
Cu300      Cu  0.27650945  0.25089605  0.27197835     1.04300
C301        C  0.27352040  0.29890298  0.19955157     0.94200
C302        C  0.22881489  0.20309334  0.30468280     0.93300
C303        C  0.22857512  0.29662170  0.30866076     0.85500
C304        C  0.27414066  0.20609909  0.19632970     0.91700
N305        N  0.37452730  0.03478430  0.11458114    -0.26400
N306        N  0.38437872  0.06552394  0.11240223    -0.34200
C307        C  0.41468939  0.06611695  0.09459949     0.02000
C308        C  0.42442092  0.03422167  0.08597703     0.08000
C309        C  0.39841379  0.01510528  0.09933673    -0.05100
H310        H  0.42791524  0.08816103  0.08620337     0.08700
H311        H  0.39576720  0.98907475  0.09403838     0.09900
Cu312      Cu  0.35412133  0.10513729  0.12862241     0.44200
Cu313      Cu  0.32664273  0.02083052  0.12599822     0.42000
Cu314      Cu  0.26863651  0.08547424  0.11304508     0.43900
N315        N  0.31597233  0.13788139  0.14184719    -0.33800
N316        N  0.28513704  0.13103711  0.13275380    -0.28000
C317        C  0.26609875  0.15559953  0.14746218    -0.04100
C318        C  0.28563397  0.17891945  0.16762091     0.08100
C319        C  0.31717303  0.16693395  0.16351937     0.01900
H320        H  0.23973440  0.15494250  0.14762527     0.09500
H321        H  0.33909584  0.17759562  0.17761854     0.08600
N322        N  0.25566055  0.03665738  0.11348210    -0.35200
N323        N  0.27684913  0.01287579  0.12064735    -0.27400
C324        C  0.26093875  0.98417012  0.12090121    -0.02600
C325        C  0.22811149  0.99017327  0.11346450     0.06000
C326        C  0.22569540  0.02377616  0.10888205     0.04100
H327        H  0.27258484  0.96059975  0.12475569     0.09200
H328        H  0.20377600  0.03790482  0.10309407     0.08000
N329        N  0.62662691  0.03082156  0.10632237    -0.26400
N330        N  0.61745274  0.06181501  0.10751212    -0.34200
C331        C  0.58612715  0.06368313  0.09352688     0.02000
C332        C  0.57507031  0.03228707  0.08434041     0.08000
C333        C  0.60141164  0.01222492  0.09297313    -0.05100
H334        H  0.57295454  0.08627306  0.08811702     0.08700
H335        H  0.60319855  0.98642407  0.08525634     0.09900
Cu336      Cu  0.64964661  0.09983882  0.12449046     0.44200
Cu337      Cu  0.67458343  0.01541102  0.10929802     0.42000
Cu338      Cu  0.73460549  0.07935146  0.10619766     0.43900
N339        N  0.68844067  0.13110037  0.14142595    -0.33800
N340        N  0.71929092  0.12398926  0.13271848    -0.28000
C341        C  0.73841363  0.14817914  0.14868846    -0.04100
C342        C  0.71884369  0.17157570  0.16903142     0.08100
C343        C  0.68729555  0.15984631  0.16395145     0.01900
H344        H  0.76477990  0.14774359  0.14811640     0.09500
H345        H  0.66522284  0.17090940  0.17696145     0.08600
N346        N  0.74483554  0.03080233  0.09062861    -0.35200
N347        N  0.72307779  0.00716907  0.09378613    -0.27400
C348        C  0.73747628  0.97846734  0.08411471    -0.02600
C349        C  0.77006854  0.98414272  0.07436402     0.06000
C350        C  0.77369112  0.01776064  0.07869910     0.04100
H351        H  0.72517026  0.95514144  0.08546508     0.09200
H352        H  0.79565533  0.03189448  0.07387282     0.08000
N353        N  0.62814355  0.46614110  0.11122816    -0.26400
N354        N  0.61915320  0.43520161  0.10767177    -0.34200
C355        C  0.58867445  0.43432377  0.09021729     0.02000
C356        C  0.57801448  0.46622254  0.08352241     0.08000
C357        C  0.60365948  0.48558791  0.09739634    -0.05100
H358        H  0.57580498  0.41218769  0.08118906     0.08700
H359        H  0.60555630  0.51182553  0.09367811     0.09900
Cu360      Cu  0.65055618  0.39613747  0.12391852     0.44200
Cu361      Cu  0.67530386  0.48140092  0.12360267     0.42000
Cu362      Cu  0.73643154  0.41917899  0.12228424     0.43900
N363        N  0.68892673  0.36418670  0.14125482    -0.33800
N364        N  0.72002513  0.37236228  0.13755541    -0.28000
C365        C  0.73869861  0.34756067  0.15266362    -0.04100
C366        C  0.71865538  0.32262610  0.16754447     0.08100
C367        C  0.68718545  0.33407314  0.16001705     0.01900
H368        H  0.76491125  0.34878465  0.15637429     0.09500
H369        H  0.66472233  0.32202458  0.16942904     0.08600
N370        N  0.74719767  0.46879954  0.11897859    -0.35200
N371        N  0.72455913  0.49171834  0.12085516    -0.27400
C372        C  0.73877355  0.52122214  0.11771957    -0.02600
C373        C  0.77213813  0.51679385  0.11369761     0.06000
C374        C  0.77653334  0.48314170  0.11475927     0.04100
H375        H  0.72558975  0.54411592  0.11674288     0.09200
H376        H  0.79934431  0.46995567  0.11270902     0.08000
N377        N  0.37818625  0.46788308  0.11524791    -0.26400
N378        N  0.38652231  0.43680427  0.11090639    -0.34200
C379        C  0.41664476  0.43543938  0.09237938     0.02000
C380        C  0.42779017  0.46717762  0.08579583     0.08000
C381        C  0.40276855  0.48694478  0.10092088    -0.05100
H382        H  0.42887232  0.41311722  0.08243342     0.08700
H383        H  0.40123266  0.51323341  0.09753160     0.09900
Cu384      Cu  0.35431193  0.39847171  0.12726131     0.44200
Cu385      Cu  0.33125786  0.48360163  0.12822801     0.42000
Cu386      Cu  0.26904787  0.42184804  0.12062963     0.43900
N387        N  0.31538190  0.36724056  0.14443218    -0.33800
N388        N  0.28444702  0.37541277  0.13848687    -0.28000
C389        C  0.26522197  0.35135270  0.15429364    -0.04100
C390        C  0.28476071  0.32696543  0.17207224     0.08100
C391        C  0.31646763  0.33785172  0.16534519     0.01900
H392        H  0.23893148  0.35284574  0.15640610     0.09500
H393        H  0.33860824  0.32594227  0.17661312     0.08600
N394        N  0.25932216  0.47149014  0.12004073    -0.35200
N395        N  0.28206127  0.49410200  0.12423737    -0.27400
C396        C  0.26797537  0.52375588  0.12319330    -0.02600
C397        C  0.23463041  0.51966665  0.11834739     0.06000
C398        C  0.23009533  0.48611852  0.11659715     0.04100
H399        H  0.28124324  0.54655445  0.12452176     0.09200
H400        H  0.20725807  0.47313276  0.11357315     0.08000
N401        N  0.21877432  0.12442303  0.36064510    -0.26400
N402        N  0.18771112  0.13282464  0.35666764    -0.34200
C403        C  0.18630656  0.16298098  0.33790673     0.02000
C404        C  0.21791041  0.17414547  0.33075121     0.08000
C405        C  0.23770253  0.14904635  0.34582177    -0.05100
H406        H  0.16397476  0.17538549  0.32858610     0.08700
H407        H  0.26394655  0.14765873  0.34270002     0.09900
Cu408      Cu  0.14874947  0.10141962  0.37456925     0.44200
Cu409      Cu  0.23502582  0.07775660  0.37625428     0.42000
Cu410      Cu  0.17227390  0.01672031  0.37682209     0.43900
N411        N  0.11645728  0.06310437  0.39218277    -0.33800
N412        N  0.12515283  0.03205003  0.38910171    -0.28000
C413        C  0.10069361  0.01292554  0.40373984    -0.04100
C414        C  0.07526560  0.03258993  0.41778646     0.08100
C415        C  0.08613358  0.06438116  0.41021855     0.01900
H416        H  0.10252841  0.98671991  0.40798535     0.09500
H417        H  0.07352710  0.08671554  0.41913013     0.08600
N418        N  0.22136364  0.00580592  0.37992517    -0.35200
N419        N  0.24458214  0.02810922  0.38067310    -0.27400
C420        C  0.27361280  0.01306590  0.38470913    -0.02600
C421        C  0.26833225  0.97961861  0.38693729     0.06000
C422        C  0.23485402  0.97603935  0.38383618     0.04100
H423        H  0.29677912  0.02562821  0.38562051     0.09200
H424        H  0.22108094  0.95356553  0.38565335     0.08000
N425        N  0.78289863  0.12730662  0.37274771    -0.26400
N426        N  0.81395708  0.13376695  0.36456845    -0.34200
C427        C  0.81578465  0.16218465  0.34130402     0.02000
C428        C  0.78443643  0.17425390  0.33515176     0.08000
C429        C  0.76435692  0.15155233  0.35575262    -0.05100
H430        H  0.83811292  0.17254662  0.32811466     0.08700
H431        H  0.73798685  0.15137608  0.35531076     0.09900
Cu432      Cu  0.85192547  0.10159337  0.38165282     0.44200
Cu433      Cu  0.76569090  0.08310167  0.39800248     0.42000
Cu434      Cu  0.82394007  0.01825482  0.39787109     0.43900
N435        N  0.88279760  0.06225393  0.39731262    -0.33800
N436        N  0.87245661  0.03167771  0.39914809    -0.28000
C437        C  0.89717608  0.01210721  0.41175848    -0.04100
C438        C  0.92437537  0.03114245  0.41932834     0.08100
C439        C  0.91439190  0.06289543  0.41011760     0.01900
H440        H  0.89451340  0.98646892  0.41996905     0.09500
H441        H  0.92845222  0.08496339  0.41505697     0.08600
N442        N  0.77485408  0.01077943  0.40968399    -0.35200
N443        N  0.75326214  0.03471530  0.41069899    -0.27400
C444        C  0.72349944  0.02192548  0.41789299    -0.02600
C445        C  0.72654586  0.98823476  0.42170010     0.06000
C446        C  0.75956417  0.98217820  0.41648213     0.04100
H447        H  0.70128722  0.03613342  0.41951045     0.09200
H448        H  0.77153347  0.95862004  0.41578848     0.08000
N449        N  0.78235468  0.37227173  0.36463480    -0.26400
N450        N  0.81341318  0.36415960  0.35964907    -0.34200
C451        C  0.81495821  0.33474437  0.33888148     0.02000
C452        C  0.78345213  0.32366208  0.33123695     0.08000
C453        C  0.76351678  0.34805960  0.34819757    -0.05100
H454        H  0.83733533  0.32281471  0.32866986     0.08700
H455        H  0.73722550  0.34922683  0.34570159     0.09900
Cu456      Cu  0.85236459  0.39473236  0.37863360     0.44200
Cu457      Cu  0.76618114  0.41817555  0.38529369     0.42000
Cu458      Cu  0.82917274  0.47903006  0.38202696     0.43900
N459        N  0.88470936  0.43249194  0.39657223    -0.33800
N460        N  0.87629521  0.46358740  0.39318551    -0.28000
C461        C  0.90054012  0.48247861  0.40898201    -0.04100
C462        C  0.92539029  0.46254196  0.42422877     0.08100
C463        C  0.91455803  0.43087993  0.41599201     0.01900
H464        H  0.89867823  0.50863790  0.41373804     0.09500
H465        H  0.92666173  0.40842969  0.42569623     0.08600
N466        N  0.78065123  0.48994273  0.39214131    -0.35200
N467        N  0.75735440  0.46778721  0.39491266    -0.27400
C468        C  0.72879974  0.48308239  0.40265338    -0.02600
C469        C  0.73454634  0.51647518  0.40478289     0.06000
C470        C  0.76775309  0.51977176  0.39821632     0.04100
H471        H  0.70550166  0.47086488  0.40506101     0.09200
H472        H  0.78168982  0.54218913  0.39805861     0.08000
N473        N  0.21900676  0.37116121  0.37445706    -0.26400
N474        N  0.18792785  0.36419090  0.36726806    -0.34200
C475        C  0.18624000  0.33564836  0.34427975     0.02000
C476        C  0.21768790  0.32402763  0.33755906     0.08000
C477        C  0.23770703  0.34712716  0.35734822    -0.05100
H478        H  0.16389859  0.32479969  0.33186412     0.08700
H479        H  0.26405900  0.34777409  0.35610303     0.09900
Cu480      Cu  0.14957199  0.39545837  0.38655629     0.44200
Cu481      Cu  0.23573592  0.41591353  0.39732424     0.42000
Cu482      Cu  0.17481684  0.47921373  0.40042002     0.43900
N483        N  0.11769646  0.43320123  0.40639192    -0.33800
N484        N  0.12699822  0.46412225  0.40759355    -0.28000
C485        C  0.10213282  0.48280296  0.42208524    -0.04100
C486        C  0.07587860  0.46286794  0.43156582     0.08100
C487        C  0.08663987  0.43143388  0.42157774     0.01900
H488        H  0.10400459  0.50867893  0.42921586     0.09500
H489        H  0.07333643  0.40891888  0.42662536     0.08600
N490        N  0.22433221  0.48817621  0.40488469    -0.35200
N491        N  0.24668247  0.46492628  0.40490687    -0.27400
C492        C  0.27634886  0.47868819  0.40757639    -0.02600
C493        C  0.27249910  0.51231040  0.40941078     0.06000
C494        C  0.23911897  0.51736075  0.40784955     0.04100
H495        H  0.29900342  0.46516890  0.40656631     0.09200
H496        H  0.22636869  0.54049301  0.40887947     0.08000
N497        N  0.00148650  0.80118204  0.06796762    -0.35700
N498        N  0.95238646  0.74929298  0.06515933    -0.56300
N499        N  0.00387505  0.70133093  0.07704310    -0.35700
N500        N  0.05328853  0.75306190  0.07313442    -0.56300
C501        C  0.97477030  0.81881561  0.05662937     0.27900
C502        C  0.02770696  0.82085715  0.06255012     0.27900
C503        C  0.97812546  0.68124532  0.06994651     0.27900
C504        C  0.03126933  0.68316199  0.07255633     0.27900
C505        C  0.93247223  0.77556159  0.06785514     0.36500
C506        C  0.93372041  0.72281940  0.07395828     0.36500
C507        C  0.07142503  0.78024473  0.07971075     0.36500
C508        C  0.07279043  0.72737289  0.08293517     0.36500
C509        C  0.98413171  0.85013169  0.04415345    -0.21000
C510        C  0.01750591  0.85142764  0.04796630    -0.21000
C511        C  0.98929312  0.64988164  0.06122259    -0.21000
C512        C  0.02280251  0.65108253  0.06284604    -0.21000
C513        C  0.90091350  0.76568347  0.07744448    -0.22000
C514        C  0.90172228  0.73230422  0.08148478    -0.22000
C515        C  0.10278718  0.77174159  0.09274325    -0.22000
C516        C  0.10368297  0.73825401  0.09465716    -0.22000
C517        C  0.94202437  0.80833859  0.06065321    -0.17400
C518        C  0.06038205  0.81265328  0.07303969    -0.17400
C519        C  0.06356929  0.69414541  0.08016097    -0.17400
C520        C  0.94482349  0.69006714  0.07367381    -0.17400
H521        H  0.96848712  0.87019736  0.03410675     0.15500
H522        H  0.03252109  0.87261069  0.04124260     0.15500
H523        H  0.97479352  0.62829012  0.05477251     0.15500
H524        H  0.03907384  0.63053534  0.05801337     0.15500
H525        H  0.87954286  0.78095017  0.08142091     0.13800
H526        H  0.88107367  0.71682902  0.08915579     0.13800
H527        H  0.12292830  0.78794823  0.10018556     0.13800
H528        H  0.12466578  0.72360761  0.10386573     0.13800
H529        H  0.00142525  0.77879576  0.08372322     0.27100
H530        H  0.00278080  0.72473188  0.08962457     0.27100
N531        N  0.49856929  0.79820726  0.41929661    -0.35700
N532        N  0.55104203  0.75051575  0.42583301    -0.56300
N533        N  0.50323062  0.69825193  0.42133021    -0.35700
N534        N  0.45061364  0.74604825  0.42004045    -0.56300
C535        C  0.52384417  0.81819134  0.42911969     0.27900
C536        C  0.47089743  0.81569055  0.42511786     0.27900
C537        C  0.53039841  0.68074243  0.43066495     0.27900
C538        C  0.47736838  0.67849844  0.42867049     0.27900
C539        C  0.56912079  0.77783327  0.42050721     0.36500
C540        C  0.57161989  0.72495064  0.42082834     0.36500
C541        C  0.43056808  0.77140464  0.41094177     0.36500
C542        C  0.43297614  0.71869955  0.41302601     0.36500
C543        C  0.51204239  0.84890181  0.44062913    -0.21000
C544        C  0.47864712  0.84728793  0.43820844    -0.21000
C545        C  0.52172316  0.64933180  0.44357262    -0.21000
C546        C  0.48824235  0.64794245  0.44244406    -0.21000
C547        C  0.60146559  0.76956505  0.41306569    -0.22000
C548        C  0.60301824  0.73607058  0.41307035    -0.22000
C549        C  0.39993820  0.76017089  0.39868119    -0.22000
C550        C  0.40145666  0.72672021  0.40001386    -0.22000
C551        C  0.55725957  0.81013644  0.42500425    -0.17400
C552        C  0.43894488  0.80456876  0.41618190    -0.17400
C553        C  0.44436471  0.68660302  0.42047262    -0.17400
C554        C  0.56284113  0.69172376  0.42533749    -0.17400
H555        H  0.52596811  0.87046103  0.44928855     0.15500
H556        H  0.46198808  0.86726797  0.44477649     0.15500
H557        H  0.53785425  0.62939171  0.45255392     0.15500
H558        H  0.47359642  0.62669626  0.45028795     0.15500
H559        H  0.62190414  0.78591471  0.40844767     0.13800
H560        H  0.62484691  0.72158647  0.40835465     0.13800
H561        H  0.37865915  0.77456572  0.39004541     0.13800
H562        H  0.38157710  0.71020892  0.39248311     0.13800
H563        H  0.50021385  0.77537790  0.40419006     0.27100
H564        H  0.50255748  0.72091165  0.40562540     0.27100
N565        N  0.45129133  0.24955693  0.57537081    -0.35700
N566        N  0.50201467  0.20001359  0.57307675    -0.56300
N567        N  0.55183155  0.25106170  0.56934463    -0.35700
N568        N  0.50101762  0.30042770  0.57665060    -0.56300
C569        C  0.43331984  0.22256801  0.58423002     0.27900
C570        C  0.43294586  0.27585679  0.58660306     0.27900
C571        C  0.57071893  0.22444967  0.57688598     0.27900
C572        C  0.57008644  0.27778298  0.57888335     0.27900
C573        C  0.47570918  0.18042079  0.56793070     0.36500
C574        C  0.52854393  0.18117375  0.56531264     0.36500
C575        C  0.47422569  0.31942586  0.57255641     0.36500
C576        C  0.52689896  0.32017764  0.56970357     0.36500
C577        C  0.40299917  0.23187275  0.60062960    -0.21000
C578        C  0.40276131  0.26548521  0.60211409    -0.21000
C579        C  0.60156384  0.23441576  0.59040592    -0.21000
C580        C  0.60115046  0.26803896  0.59170882    -0.21000
C581        C  0.48559452  0.14898716  0.55703975    -0.22000
C582        C  0.51903139  0.14945520  0.55540319    -0.22000
C583        C  0.48312599  0.35138391  0.56308839    -0.22000
C584        C  0.51651069  0.35185426  0.56126125    -0.22000
C585        C  0.44303791  0.18982727  0.57627029    -0.17400
C586        C  0.44199737  0.30896315  0.58083474    -0.17400
C587        C  0.55979075  0.31073840  0.57506002    -0.17400
C588        C  0.56128559  0.19144690  0.57048230    -0.17400
H589        H  0.38303675  0.21609385  0.61038008     0.15500
H590        H  0.38255507  0.28056669  0.61311263     0.15500
H591        H  0.62224589  0.21905692  0.59862908     0.15500
H592        H  0.62144035  0.28353128  0.60109264     0.15500
H593        H  0.47033011  0.12779233  0.55155888     0.13800
H594        H  0.53458563  0.12867505  0.54839740     0.13800
H595        H  0.46725824  0.37231060  0.55878953     0.13800
H596        H  0.53145609  0.37320006  0.55525680     0.13800
H597        H  0.47332772  0.25012016  0.55811821     0.27100
H598        H  0.52888282  0.25102906  0.55448398     0.27100
N599        N  0.00229041  0.30123662  0.93992921    -0.35700
N600        N  0.05290075  0.25181720  0.94449869    -0.56300
N601        N  0.00271482  0.20247806  0.95477954    -0.35700
N602        N  0.95215009  0.25171802  0.95519898    -0.56300
C603        C  0.02906410  0.32031085  0.94435688     0.27900
C604        C  0.97601193  0.32023888  0.94856511     0.27900
C605        C  0.02984370  0.18514932  0.96481520     0.27900
C606        C  0.97703715  0.18507688  0.97031763     0.27900
C607        C  0.07117556  0.27754487  0.93125221     0.36500
C608        C  0.07119162  0.22478969  0.93763496     0.36500
C609        C  0.93291211  0.27744213  0.94453512     0.36500
C610        C  0.93320387  0.22474061  0.95242874     0.36500
C611        C  0.01962159  0.35181848  0.95580942    -0.21000
C612        C  0.98614830  0.35180383  0.95825199    -0.21000
C613        C  0.02134621  0.15664637  0.98742701    -0.21000
C614        C  0.98797102  0.15659683  0.99087232    -0.21000
C615        C  0.10137335  0.26686474  0.91616393    -0.22000
C616        C  0.10132651  0.23335113  0.92000508    -0.22000
C617        C  0.90142819  0.26685737  0.93582912    -0.22000
C618        C  0.90165060  0.23341773  0.94061386    -0.22000
C619        C  0.06158491  0.31059411  0.93542989    -0.17400
C620        C  0.94306765  0.31046093  0.94465477    -0.17400
C621        C  0.94396134  0.19262954  0.96226129    -0.17400
C622        C  0.06169609  0.19287304  0.95027836    -0.17400
H623        H  0.03518867  0.37280594  0.96117011     0.15500
H624        H  0.97097004  0.37275434  0.96586095     0.15500
H625        H  0.03748304  0.13749183  0.99926378     0.15500
H626        H  0.97333643  0.13741222  0.00584278     0.15500
H627        H  0.12137536  0.28168488  0.90395291     0.13800
H628        H  0.12133417  0.21721419  0.91149398     0.13800
H629        H  0.88050203  0.28167455  0.92690907     0.13800
H630        H  0.88093835  0.21740048  0.93605228     0.13800
H631        H  0.00164761  0.27778035  0.92650017     0.27100
H632        H  0.00151329  0.22238064  0.93283789     0.27100
C633        C  0.31828684  0.59160600  0.39078904     0.13600
C634        C  0.34746632  0.58539160  0.41405126     0.00500
C635        C  0.35228545  0.55517618  0.43543015     0.15500
C636        C  0.32801912  0.53127987  0.43372216     0.24900
C637        C  0.29841631  0.53744192  0.41085615    -0.41400
C638        C  0.29389647  0.56785282  0.38915978     0.32000
C639        C  0.37283009  0.61063332  0.41623648     0.00600
F640        F  0.38055535  0.54888134  0.45790297    -0.13700
F641        F  0.26633972  0.57434111  0.36516745    -0.14200
C642        C  0.37525556  0.63079871  0.45475920     0.15500
C643        C  0.39880538  0.65538279  0.45640754     0.24900
C644        C  0.42017868  0.65985134  0.41959246    -0.41300
C645        C  0.41783016  0.63956698  0.38116679     0.31900
C646        C  0.39423075  0.61503781  0.37948938     0.13600
F647        F  0.35448428  0.62690375  0.49033880    -0.13700
F648        F  0.43803414  0.64401546  0.34508290    -0.14200
F649        F  0.40062768  0.67506214  0.49358115    -0.16500
F650        F  0.39209554  0.59566291  0.34204274    -0.15100
F651        F  0.31345848  0.62077155  0.36974480    -0.15100
F652        F  0.33331469  0.50242727  0.45522806    -0.16500
C653        C  0.66037549  0.56466439  0.44324175     0.13600
C654        C  0.66410370  0.59380821  0.41856337     0.00500
C655        C  0.69126491  0.59770130  0.39008382     0.15500
C656        C  0.71434978  0.57272875  0.38608407     0.24900
C657        C  0.71043287  0.54318035  0.41010718    -0.41400
C658        C  0.68318202  0.53939750  0.43872078     0.32000
C659        C  0.63870253  0.61938423  0.42048650     0.00600
F660        F  0.69525502  0.62566005  0.36580890    -0.13700
F661        F  0.67872230  0.51137501  0.46258751    -0.14200
C662        C  0.63315224  0.63705529  0.46082843     0.15500
C663        C  0.60849667  0.66071332  0.46252117     0.24900
C664        C  0.58910330  0.66680279  0.42396169    -0.41300
C665        C  0.59471652  0.64920903  0.38366718     0.31900
C666        C  0.61945615  0.62576010  0.38186224     0.13600
F667        F  0.65184782  0.63160220  0.49827822    -0.13700
F668        F  0.57617173  0.65483413  0.34611835    -0.14200
F669        F  0.60335920  0.67758299  0.50170826    -0.16500
F670        F  0.62434375  0.60884217  0.34263888    -0.15100
F671        F  0.63413551  0.56038645  0.47075562    -0.15100
F672        F  0.73979255  0.57701527  0.35716688    -0.16500
C673        C  0.68164434  0.90986129  0.45074609     0.13600
C674        C  0.65165444  0.91471720  0.42865158     0.00500
C675        C  0.64579694  0.94436781  0.40600544     0.15500
C676        C  0.66978734  0.96860827  0.40467235     0.24900
C677        C  0.70022002  0.96355958  0.42585998    -0.41400
C678        C  0.70575389  0.93399550  0.44929497     0.32000
C679        C  0.62696879  0.88838277  0.42782079     0.00600
F680        F  0.61683776  0.94972374  0.38481674    -0.13700
F681        F  0.73444911  0.92841133  0.47102977    -0.14200
C682        C  0.61325735  0.87674632  0.46859907     0.15500
C683        C  0.59065305  0.85119809  0.46770594     0.24900
C684        C  0.58126036  0.83719809  0.42603461    -0.41300
C685        C  0.59457746  0.84906597  0.38523611     0.31900
C686        C  0.61741051  0.87438395  0.38611641     0.13600
F687        F  0.62145818  0.89045218  0.50915317    -0.13700
F688        F  0.58558281  0.83588935  0.34465607    -0.14200
F689        F  0.57762590  0.84024644  0.50737792    -0.16500
F690        F  0.63070150  0.88483884  0.34635038    -0.15100
F691        F  0.68792898  0.88128647  0.47261054    -0.15100
F692        F  0.66365204  0.99634921  0.38081502    -0.16500
C693        C  0.38393893  0.87025366  0.36855499     0.13600
C694        C  0.36425402  0.87738932  0.40637627     0.00500
C695        C  0.36862550  0.86007060  0.44723586     0.15500
C696        C  0.39269589  0.83596184  0.45030810     0.24900
C697        C  0.41270098  0.82923340  0.41266743    -0.41400
C698        C  0.40811510  0.84632954  0.37172509     0.32000
C699        C  0.33927404  0.90308970  0.40296484     0.00600
F700        F  0.34946836  0.86643917  0.48388638    -0.13700
F701        F  0.42712259  0.83978947  0.33497740    -0.14200
C702        C  0.31073198  0.89747008  0.37795365     0.15500
C703        C  0.28763055  0.92229855  0.37279369     0.24900
C704        C  0.29284140  0.95328950  0.39250506    -0.41300
C705        C  0.32152351  0.95867437  0.41790019     0.31900
C706        C  0.34447867  0.93367538  0.42319008     0.13600
F707        F  0.30534813  0.86787796  0.35840907    -0.13700
F708        F  0.32711795  0.98783853  0.43847714    -0.14200
F709        F  0.26069749  0.91620537  0.34729315    -0.16500
F710        F  0.37204403  0.93939805  0.44756079    -0.15100
F711        F  0.37996949  0.88683476  0.32884782    -0.15100
F712        F  0.39674843  0.81933257  0.48995342    -0.16500
C713        C  0.11790247  0.63082477  0.13561223     0.13600
C714        C  0.13748000  0.62104636  0.09880466     0.00500
C715        C  0.13318576  0.63583557  0.05598373     0.15500
C716        C  0.10932878  0.65988020  0.04991795     0.24900
C717        C  0.08931247  0.66911124  0.08649339    -0.41400
C718        C  0.09387521  0.65467015  0.12942930     0.32000
C719        C  0.16203684  0.59501447  0.10474889     0.00600
F720        F  0.15233849  0.62712818  0.02026073    -0.13700
F721        F  0.07504487  0.66380593  0.16526699    -0.14200
C722        C  0.15813415  0.56497997  0.08240647     0.15500
C723        C  0.18157745  0.54043394  0.08709368     0.24900
C724        C  0.20947023  0.54552980  0.11421044    -0.41300
C725        C  0.21315263  0.57567904  0.13689304     0.31900
C726        C  0.18953086  0.60015051  0.13228896     0.13600
F727        F  0.13142979  0.55938620  0.05617314    -0.13700
F728        F  0.23922559  0.58133175  0.16428288    -0.14200
F729        F  0.17732287  0.51206715  0.06394983    -0.16500
F730        F  0.19367134  0.62906923  0.15422950    -0.15100
F731        F  0.12171381  0.61683784  0.17724336    -0.15100
F732        F  0.10563581  0.67412494  0.00844665    -0.16500
C733        C  0.81800512  0.59734761  0.12174583     0.13600
C734        C  0.84523582  0.59110934  0.09413674     0.00500
C735        C  0.84826527  0.56061359  0.07273836     0.15500
C736        C  0.82472110  0.53638666  0.07948965     0.24900
C737        C  0.79732830  0.54242896  0.10716613    -0.41400
C738        C  0.79411470  0.57332245  0.12800410     0.32000
C739        C  0.87093639  0.61610627  0.08845718     0.00600
F740        F  0.87429734  0.55419659  0.04563697    -0.13700
F741        F  0.76836815  0.58004046  0.15549336    -0.14200
C742        C  0.89280022  0.62256391  0.12419823     0.15500
C743        C  0.91731645  0.64602142  0.11889697     0.24900
C744        C  0.92012083  0.66357136  0.07791556    -0.41300
C745        C  0.89835473  0.65694415  0.04202728     0.31900
C746        C  0.87395936  0.63330910  0.04724554     0.13600
F747        F  0.89038511  0.60603707  0.16417443    -0.13700
F748        F  0.90059765  0.67364738  0.00218381    -0.14200
F749        F  0.93801528  0.65207902  0.15401772    -0.16500
F750        F  0.85288831  0.62758236  0.01244569    -0.15100
F751        F  0.81454390  0.62680374  0.14250710    -0.15100
F752        F  0.82846299  0.50724768  0.05810435    -0.16500
C753        C  0.88548952  0.87622951  0.09756512     0.13600
C754        C  0.86849837  0.88327907  0.05695890     0.00500
C755        C  0.87531280  0.86475457  0.01759753     0.15500
C756        C  0.89887992  0.83995433  0.01887851     0.24900
C757        C  0.91621932  0.83371054  0.05921633    -0.41400
C758        C  0.90938520  0.85194196  0.09847620     0.32000
C759        C  0.84395079  0.91004108  0.05632927     0.00600
F760        F  0.85979028  0.87117755  0.97770212    -0.13700
F761        F  0.92590320  0.84607393  0.13776930    -0.14200
C762        C  0.85217531  0.94110260  0.07322039     0.15500
C763        C  0.82837442  0.96522626  0.07855062     0.24900
C764        C  0.79584473  0.95931024  0.06550950    -0.41300
C765        C  0.78805887  0.92882641  0.04584910     0.31900
C766        C  0.81178693  0.90434330  0.04177090     0.13600
F767        F  0.88334860  0.94793460  0.08554623    -0.13700
F768        F  0.75744163  0.92247900  0.03073184    -0.14200
F769        F  0.83711521  0.99370952  0.09877184    -0.16500
F770        F  0.80293971  0.87463554  0.02530381    -0.15100
F771        F  0.87863327  0.89261862  0.13665001    -0.15100
F772        F  0.90521731  0.82234790  0.98067371    -0.16500
C773        C  0.10630926  0.88417722  0.12396997     0.13600
C774        C  0.12940154  0.89088488  0.08992220     0.00500
C775        C  0.12947919  0.87209424  0.04977971     0.15500
C776        C  0.10713462  0.84653957  0.04418303     0.24900
C777        C  0.08415486  0.83980036  0.07837316    -0.41400
C778        C  0.08370786  0.85896676  0.11808384     0.32000
C779        C  0.15392401  0.91692614  0.09685692     0.00600
F780        F  0.15164387  0.87810952  0.01649721    -0.13700
F781        F  0.06148759  0.85298556  0.15129801    -0.14200
C782        C  0.17762085  0.91371758  0.13115881     0.15500
C783        C  0.20144103  0.93778952  0.13705049     0.24900
C784        C  0.20179320  0.96565156  0.10894599    -0.41300
C785        C  0.17743254  0.96927975  0.07548463     0.31900
C786        C  0.15389584  0.94493966  0.06920397     0.13600
F787        F  0.17805924  0.88687520  0.15835662    -0.13700
F788        F  0.17703650  0.99583768  0.04779693    -0.14200
F789        F  0.22384895  0.93408629  0.17074998    -0.16500
F790        F  0.13102544  0.94869638  0.03613111    -0.15100
F791        F  0.10556588  0.90223682  0.16277922    -0.15100
F792        F  0.10791663  0.82828891  0.00555981    -0.16500
C793        C  0.87322649  0.13749608  0.99564975     0.13600
C794        C  0.87570990  0.11251971  0.96288550     0.00500
C795        C  0.90118547  0.11348271  0.93099550     0.15500
C796        C  0.92316977  0.13959192  0.93086627     0.24900
C797        C  0.92015828  0.16511438  0.96278301    -0.41400
C798        C  0.89537476  0.16354207  0.99573346     0.32000
C799        C  0.85016704  0.08705514  0.95946570     0.00600
F800        F  0.90409341  0.08967671  0.89901040    -0.13700
F801        F  0.89275280  0.18716739  0.02800588    -0.14200
C802        C  0.81856990  0.09593255  0.94616282     0.15500
C803        C  0.79438754  0.07223903  0.94057008     0.24900
C804        C  0.80108383  0.03889667  0.94898917    -0.41300
C805        C  0.83292034  0.03015289  0.96289137     0.31900
C806        C  0.85725394  0.05399368  0.96761464     0.13600
F807        F  0.81140034  0.12767389  0.93702153    -0.13700
F808        F  0.84059455  0.99866408  0.97264557    -0.14200
F809        F  0.76484862  0.08215460  0.92504651    -0.16500
F810        F  0.88770983  0.04483810  0.98054459    -0.15100
F811        F  0.84927137  0.13658794  0.02750390    -0.15100
F812        F  0.94722681  0.14026673  0.89911855    -0.16500
C813        C  0.13390463  0.13893139  0.97978864     0.13600
C814        C  0.13017423  0.11325966  0.94833466     0.00500
C815        C  0.10379116  0.11380180  0.91778403     0.15500
C816        C  0.08187638  0.13998330  0.91802959     0.24900
C817        C  0.08595753  0.16592798  0.94892940    -0.41400
C818        C  0.11190918  0.16507065  0.98012272     0.32000
C819        C  0.15561458  0.08780695  0.94409775     0.00600
F820        F  0.09996597  0.08956385  0.88662673    -0.13700
F821        F  0.11575444  0.18946894  0.01100840    -0.14200
C822        C  0.14843192  0.05458578  0.95043974     0.15500
C823        C  0.17248442  0.03075667  0.94334591     0.24900
C824        C  0.20413100  0.03974624  0.92905278    -0.41300
C825        C  0.21100914  0.07330768  0.92318714     0.31900
C826        C  0.18712412  0.09691251  0.93102040     0.13600
F827        F  0.11814236  0.04523633  0.96369369    -0.13700
F828        F  0.24035941  0.08368411  0.90779270    -0.14200
F829        F  0.16463950  0.99903373  0.95093721    -0.16500
F830        F  0.19444890  0.12886507  0.92392281    -0.15100
F831        F  0.15898810  0.13867419  0.01000676    -0.15100
F832        F  0.05681315  0.14029226  0.88775905    -0.16500
C833        C  0.11088809  0.38222621  0.89082918     0.13600
C834        C  0.13391734  0.38646060  0.92580702     0.00500
C835        C  0.13308188  0.36577978  0.96400534     0.15500
C836        C  0.10985126  0.34081595  0.96680366     0.24900
C837        C  0.08693171  0.33644838  0.93168559    -0.41400
C838        C  0.08746124  0.35748554  0.89383276     0.32000
C839        C  0.15921718  0.41203018  0.92182806     0.00600
F840        F  0.15501204  0.36957770  0.99828088    -0.13700
F841        F  0.06522586  0.35402503  0.85988034    -0.14200
C842        C  0.15863965  0.43961025  0.95031005     0.15500
C843        C  0.18217342  0.46412917  0.94550548     0.24900
C844        C  0.20706930  0.46107205  0.91282925    -0.41300
C845        C  0.20780788  0.43319389  0.88475261     0.31900
C846        C  0.18391455  0.40902488  0.88900297     0.13600
F847        F  0.13506500  0.44292412  0.98242355    -0.13700
F848        F  0.23112418  0.42974818  0.85229811    -0.14200
F849        F  0.18108000  0.49048934  0.97351127    -0.16500
F850        F  0.18497653  0.38247678  0.86127794    -0.15100
F851        F  0.11090533  0.40238109  0.85406899    -0.15100
F852        F  0.10941783  0.32108433  0.00399010    -0.16500
C853        C  0.87594920  0.37091574  0.97331389     0.13600
C854        C  0.87095681  0.38622968  0.93096093     0.00500
C855        C  0.89001713  0.37677686  0.89339949     0.15500
C856        C  0.91341629  0.35210831  0.89796475     0.24900
C857        C  0.91799497  0.33645489  0.94006960    -0.41400
C858        C  0.89925535  0.34608110  0.97778079     0.32000
C859        C  0.84518779  0.41130242  0.92544886     0.00600
F860        F  0.88607523  0.39165761  0.85239451    -0.13700
F861        F  0.90364450  0.33141987  0.01883489    -0.14200
C862        C  0.84695744  0.44112491  0.94898373     0.15500
C863        C  0.82274306  0.46488858  0.94300999     0.24900
C864        C  0.79610608  0.45911024  0.91373179    -0.41300
C865        C  0.79427316  0.42900315  0.89061283     0.31900
C866        C  0.81869417  0.40544960  0.89624007     0.13600
F867        F  0.87246639  0.44745878  0.97714404    -0.13700
F868        F  0.76941462  0.42265973  0.86138139    -0.14200
F869        F  0.82514144  0.49333418  0.96649647    -0.16500
F870        F  0.81643055  0.37673480  0.87326607    -0.15100
F871        F  0.85776367  0.37956687  0.01002570    -0.15100
F872        F  0.93152033  0.34326837  0.86125557    -0.16500
C873        C  0.68761558  0.09571361  0.60727056     0.13600
C874        C  0.66150361  0.09182065  0.57683362     0.00500
C875        C  0.65976884  0.06339062  0.55004762     0.15500
C876        C  0.68334838  0.03874708  0.55467855     0.24900
C877        C  0.70916100  0.04231996  0.58595962    -0.41400
C878        C  0.71129380  0.07131607  0.61168581     0.32000
C879        C  0.63555950  0.11699549  0.57454663     0.00600
F880        F  0.63479261  0.05918535  0.52023859    -0.13700
F881        F  0.73560673  0.07560935  0.64251908    -0.14200
C882        C  0.63141826  0.13622516  0.53525896     0.15500
C883        C  0.60736116  0.16056948  0.53394977     0.24900
C884        C  0.58708265  0.16586261  0.57181318    -0.41300
C885        C  0.59120770  0.14662151  0.61103525     0.31900
C886        C  0.61527383  0.12239072  0.61240869     0.13600
F887        F  0.65108174  0.13179886  0.49858447    -0.13700
F888        F  0.57197241  0.15150016  0.64804924    -0.14200
F889        F  0.60374285  0.17897190  0.49578324    -0.16500
F890        F  0.61867037  0.10394836  0.65059419    -0.15100
F891        F  0.69003644  0.12318846  0.63300739    -0.15100
F892        F  0.68119426  0.01164393  0.52815156    -0.16500
C893        C  0.31747583  0.09403068  0.61840433     0.13600
C894        C  0.34454508  0.08888436  0.59007756     0.00500
C895        C  0.34722071  0.05930865  0.56607801     0.15500
C896        C  0.32327350  0.03508867  0.57059497     0.24900
C897        C  0.29591504  0.04024404  0.59874065    -0.41400
C898        C  0.29328462  0.07008147  0.62251686     0.32000
C899        C  0.37008849  0.11433632  0.58603247     0.00600
F900        F  0.37322523  0.05380101  0.53854203    -0.13700
F901        F  0.26775017  0.07582197  0.65079914    -0.14200
C902        C  0.39154259  0.12026839  0.62247364     0.15500
C903        C  0.41535182  0.14465127  0.61909794     0.24900
C904        C  0.41785175  0.16370473  0.57942839    -0.41300
C905        C  0.39632297  0.15790485  0.54301920     0.31900
C906        C  0.37273538  0.13322422  0.54618131     0.13600
F907        F  0.38951046  0.10224980  0.66120965    -0.13700
F908        F  0.39822659  0.17615846  0.50448325    -0.14200
F909        F  0.43588508  0.14991700  0.65465243    -0.16500
F910        F  0.35211848  0.12805381  0.51068778    -0.15100
F911        F  0.31441050  0.12244228  0.64193021    -0.15100
F912        F  0.32649163  0.00695956  0.54648805    -0.16500
C913        C  0.38637794  0.37433301  0.62900007     0.13600
C914        C  0.36829307  0.38329913  0.59019000     0.00500
C915        C  0.37457145  0.36769275  0.54841105     0.15500
C916        C  0.39834634  0.34327571  0.54559106     0.24900
C917        C  0.41627949  0.33431575  0.58435929    -0.41400
C918        C  0.41036517  0.35010906  0.62602105     0.32000
C919        C  0.34266983  0.40866846  0.59341021     0.00600
F920        F  0.35731082  0.37577892  0.51054225    -0.13700
F921        F  0.42795106  0.34211203  0.66363527    -0.14200
C922        C  0.34471906  0.43739608  0.56730656     0.15500
C923        C  0.32059595  0.46145985  0.57084916     0.24900
C924        C  0.29381515  0.45694326  0.59999721    -0.41300
C925        C  0.29167369  0.42804386  0.62579103     0.31900
C926        C  0.31598270  0.40421206  0.62269095     0.13600
F927        F  0.37033900  0.44232314  0.53887690    -0.13700
F928        F  0.26652690  0.42322917  0.65506057    -0.14200
F929        F  0.32307385  0.48889395  0.54515406    -0.16500
F930        F  0.31330356  0.37656030  0.64798267    -0.15100
F931        F  0.38112220  0.38943861  0.66955392    -0.15100
F932        F  0.40411697  0.32845940  0.50499189    -0.16500
C933        C  0.67926832  0.40992540  0.62928923     0.13600
C934        C  0.65403361  0.41445064  0.59754690     0.00500
C935        C  0.65255744  0.44366451  0.57247269     0.15500
C936        C  0.67600338  0.46806337  0.57920421     0.24900
C937        C  0.70180227  0.46316391  0.61012246    -0.41400
C938        C  0.70312440  0.43390741  0.63522406     0.32000
C939        C  0.62932913  0.38856010  0.59098950     0.00600
F940        F  0.62830064  0.44859925  0.54170861    -0.13700
F941        F  0.72716083  0.42877935  0.66625700    -0.14200
C942        C  0.60814443  0.38031958  0.62675641     0.15500
C943        C  0.58582586  0.35480428  0.62157537     0.24900
C944        C  0.58434723  0.33714562  0.58055924    -0.41300
C945        C  0.60527967  0.34554001  0.54457421     0.31900
C946        C  0.62763265  0.37114361  0.54973653     0.13600
F947        F  0.60893907  0.39723793  0.66655747    -0.13700
F948        F  0.60383871  0.32907645  0.50445741    -0.14200
F949        F  0.56554481  0.34725910  0.65655225    -0.16500
F950        F  0.64802621  0.37859823  0.51484898    -0.15100
F951        F  0.68105051  0.38195818  0.65406905    -0.15100
F952        F  0.67399768  0.49605781  0.55458752    -0.16500
loop_ 
_geom_bond_atom_site_label_1 
_geom_bond_atom_site_label_2 
_geom_bond_distance 
_geom_bond_site_symmetry_2 
_ccdc_geom_bond_type 
O1           Cu9   2.020       .  S
O1           C11   1.277       .  A
O2           Cu9   2.025       .  S
O2           C12   1.280       .  A
O3           Cu9   2.029       .  S
O3           C13   1.281       .  A
O4           Cu9   2.021       .  S
O4           C14   1.278       .  A
O5          Cu10   2.020       .  S
O5           C14   1.279       .  A
O6          Cu10   2.006       .  S
O6           C13   1.276       .  A
O7          Cu10   2.019       .  S
O7           C12   1.278       .  A
O8          Cu10   2.033       .  S
O8           C11   1.282       .  A
Cu9         Cu10   2.373       .  S
C11          C56   1.481       .  S
C12         C270   1.477       .  S
C13         C170   1.473       .  S
C14         C142   1.477       .  S
O15         Cu23   2.022       .  S
O15          C25   1.278       .  A
O16         Cu23   2.026       .  S
O16          C26   1.280       .  A
O17         Cu23   2.024       .  S
O17          C27   1.280       .  A
O18         Cu23   2.022       .  S
O18          C28   1.278       .  A
O19         Cu24   2.030       .  S
O19          C28   1.281       .  A
O20         Cu24   2.015       .  S
O20          C27   1.277       .  A
O21         Cu24   2.015       .  S
O21          C26   1.277       .  A
O22         Cu24   2.029       .  S
O22          C25   1.280       .  A
Cu23        Cu24   2.373       .  S
C25         C108   1.480       .  S
C26         C194   1.475       .  S
C27         C246   1.475       .  S
C28          C70   1.481       .  S
O29         Cu37   2.017       .  S
O29          C39   1.277       .  A
O30         Cu37   2.027   1_455  S
O30          C40   1.281       .  A
O31         Cu37   2.037       .  S
O31          C41   1.282       .  A
O32         Cu37   2.021   1_455  S
O32          C42   1.278       .  A
O33         Cu38   2.025   1_455  S
O33          C42   1.280       .  A
O34         Cu38   2.017       .  S
O34          C41   1.277       .  A
O35         Cu38   2.011   1_455  S
O35          C40   1.276       .  A
O36         Cu38   2.026       .  S
O36          C39   1.280       .  A
Cu37        Cu38   2.373       .  S
C39         C462   1.475       .  S
C40          C80   1.474       .  S
C41          C46   1.480       .  S
C42         C486   1.477       .  S
N43          N44   1.324       .  A
N43          C47   1.345       .  A
N43         Cu51   2.069       .  S
N44          C45   1.353       .  A
N44         Cu50   2.121       .  S
C45          C46   1.393       .  A
C45          H48   1.082       .  S
C46          C47   1.380       .  A
C47          H49   1.082       .  S
Cu50         N53   2.121       .  S
Cu51         N61   2.070       .  S
Cu52         N54   2.071       .  S
Cu52         N60   2.071       .  S
N53          N54   1.324       .  A
N53          C57   1.354       .  A
N54          C55   1.344       .  A
C55          C56   1.380       .  A
C55          H58   1.082       .  S
C56          C57   1.393       .  A
C57          H59   1.082       .  S
N60          N61   1.321       .  A
N60          C64   1.346       .  A
N61          C62   1.344       .  A
C62          C63   1.384       .  A
C62          H65   1.082       .  S
C63         C937   1.480       .  S
C63          C64   1.386       .  A
C64          H66   1.082       .  S
N67          N68   1.324       .  A
N67          C71   1.345       .  A
N67         Cu75   2.077       .  S
N68          C69   1.353       .  A
N68         Cu74   2.113       .  S
C69          C70   1.391       .  A
C69          H72   1.082       .  S
C70          C71   1.382       .  A
C71          H73   1.082       .  S
Cu74         N77   2.112       .  S
Cu75         N85   2.076       .  S
Cu76         N78   2.059       .  S
Cu76         N84   2.060       .  S
N77          N78   1.323       .  A
N77          C81   1.352       .  A
N78          C79   1.343       .  A
C79          C80   1.379       .  A
C79          H82   1.082       .  S
C80          C81   1.391       .  A
C81          H83   1.082       .  S
N84          N85   1.321       .  A
N84          C88   1.342       .  A
N85          C86   1.346       .  A
C86          C87   1.386       .  A
C86          H89   1.082       .  S
C87         C924   1.477       .  S
C87          C88   1.382       .  A
C88          H90   1.082       .  S
O91         Cu99   2.017       .  S
O91         C101   1.277       .  A
O92         Cu99   2.028   1_655  S
O92         C102   1.280   1_545  A
O93         Cu99   2.020       .  S
O93         C103   1.280   1_545  A
O94         Cu99   2.007   1_655  S
O94         C104   1.276       .  A
O95        Cu100   2.024   1_655  S
O95         C104   1.280   1_565  A
O96        Cu100   2.013       .  S
O96         C103   1.277       .  A
O97        Cu100   2.024   1_655  S
O97         C102   1.278       .  A
O98        Cu100   2.036       .  S
O98         C101   1.282   1_565  A
Cu99       Cu100   2.374   1_545  S
C101        C414   1.480       .  S
C102        C132   1.479       .  S
C103        C118   1.473       .  S
C104        C438   1.470       .  S
N105        N106   1.324       .  A
N105        C109   1.346       .  A
N105       Cu113   2.086       .  S
N106        C107   1.352       .  A
N106       Cu112   2.100       .  S
C107        C108   1.389       .  A
C107        H110   1.082       .  S
C108        C109   1.384       .  A
C109        H111   1.082       .  S
Cu112       N115   2.100       .  S
Cu113       N123   2.086       .  S
Cu114       N116   2.072       .  S
Cu114       N122   2.073       .  S
N115        N116   1.323       .  A
N115        C119   1.351       .  A
N116        C117   1.344       .  A
C117        C118   1.380       .  A
C117        H120   1.082   1_565  S
C118        C119   1.389       .  A
C119        H121   1.082       .  S
N122        N123   1.321       .  A
N122        C126   1.345   1_565  A
N123        C124   1.348       .  A
C124        C125   1.389   1_565  A
C124        H127   1.082       .  S
C125        C897   1.489       .  S
C125        C126   1.387       .  A
C126        H128   1.082       .  S
N129        N130   1.322       .  A
N129        C133   1.344       .  A
N129       Cu137   2.067       .  S
N130        C131   1.353       .  A
N130       Cu136   2.102       .  S
C131        C132   1.392       .  A
C131        H134   1.082       .  S
C132        C133   1.381       .  A
C133        H135   1.082   1_565  S
Cu136       N139   2.103       .  S
Cu137       N147   2.068       .  S
Cu138       N140   2.086       .  S
Cu138       N146   2.085       .  S
N139        N140   1.325       .  A
N139        C143   1.350       .  A
N140        C141   1.346       .  A
C141        C142   1.383       .  A
C141        H144   1.082       .  S
C142        C143   1.387       .  A
C143        H145   1.082       .  S
N146        N147   1.321       .  A
N146        C150   1.349       .  A
N147        C148   1.343   1_565  A
C148        C149   1.384       .  A
C148        H151   1.082       .  S
C149        C877   1.484       .  S
C149        C150   1.389   1_545  A
C150        H152   1.082       .  S
O153       Cu161   2.014   1_556  S
O153        C163   1.277       .  A
O154       Cu161   2.027       .  S
O154        C164   1.281       .  A
O155       Cu161   2.025       .  S
O155        C165   1.280       .  A
O156       Cu161   2.013   1_556  S
O156        C166   1.277       .  A
O157       Cu162   2.020       .  S
O157        C166   1.280       .  A
O158       Cu162   2.011   1_554  S
O158        C165   1.276       .  A
O159       Cu162   2.014   1_554  S
O159        C164   1.277       .  A
O160       Cu162   2.023       .  S
O160        C163   1.280       .  A
Cu161      Cu162   2.374   1_554  S
C163        C180   1.474       .  S
C164        C380   1.476       .  S
C165        C356   1.474       .  S
C166        C204   1.472       .  S
N167        N168   1.323       .  A
N167        C171   1.345       .  A
N167       Cu175   2.071       .  S
N168        C169   1.349       .  A
N168       Cu174   2.096       .  S
C169        C170   1.388       .  A
C169        H172   1.082       .  S
C170        C171   1.381       .  A
C171        H173   1.082       .  S
Cu174       N177   2.096       .  S
Cu175       N185   2.071       .  S
Cu176       N178   2.073       .  S
Cu176       N184   2.074       .  S
N177        N178   1.323       .  A
N177        C181   1.350       .  A
N178        C179   1.344       .  A
C179        C180   1.381       .  A
C179        H182   1.082       .  S
C180        C181   1.389       .  A
C181        H183   1.082       .  S
N184        N185   1.321       .  A
N184        C188   1.346       .  A
N185        C186   1.344       .  A
C186        C187   1.386       .  A
C186        H189   1.081       .  S
C187        C864   1.485       .  S
C187        C188   1.388       .  A
C188        H190   1.082       .  S
N191        N192   1.324       .  A
N191        C195   1.345       .  A
N191       Cu199   2.075       .  S
N192        C193   1.350       .  A
N192       Cu198   2.098       .  S
C193        C194   1.388       .  A
C193        H196   1.082       .  S
C194        C195   1.381       .  A
C195        H197   1.082       .  S
Cu198       N201   2.097       .  S
Cu199       N209   2.076       .  S
Cu200       N202   2.068       .  S
Cu200       N208   2.069       .  S
N201        N202   1.323       .  A
N201        C205   1.351       .  A
N202        C203   1.342       .  A
C203        C204   1.379       .  A
C203        H206   1.082       .  S
C204        C205   1.389       .  A
C205        H207   1.082       .  S
N208        N209   1.321       .  A
N208        C212   1.344       .  A
N209        C210   1.346       .  A
C210        C211   1.386       .  A
C210        H213   1.082       .  S
C211        C844   1.480       .  S
C211        C212   1.384       .  A
C212        H214   1.082       .  S
O215       Cu223   2.034       .  S
O215        C225   1.281       .  A
O216       Cu223   2.020       .  S
O216        C226   1.278       .  A
O217       Cu223   2.020       .  S
O217        C227   1.278       .  A
O218       Cu223   2.032       .  S
O218        C228   1.281       .  A
O219       Cu224   2.019       .  S
O219        C228   1.277       .  A
O220       Cu224   2.025       .  S
O220        C227   1.280       .  A
O221       Cu224   2.027       .  S
O221        C226   1.280       .  A
O222       Cu224   2.018       .  S
O222        C225   1.278       .  A
Cu223      Cu224   2.372       .  S
C225        C342   1.481       .  S
C226        C452   1.478       .  S
C227        C428   1.478       .  S
C228        C366   1.480       .  S
O229       Cu237   2.024       .  S
O229        C239   1.280   1_565  A
O230       Cu237   2.012   1_556  S
O230        C240   1.276       .  A
O231       Cu237   2.006   1_556  S
O231        C241   1.276       .  A
O232       Cu237   2.024       .  S
O232        C242   1.280   1_565  A
O233       Cu238   2.013   1_554  S
O233        C242   1.277       .  A
O234       Cu238   2.022       .  S
O234        C241   1.280   1_545  A
O235       Cu238   2.020       .  S
O235        C240   1.280   1_545  A
O236       Cu238   2.008   1_554  S
O236        C239   1.276       .  A
Cu237      Cu238   2.375   1_564  S
C239        C332   1.472       .  S
C240        C256   1.470       .  S
C241        C280   1.470       .  S
C242        C308   1.473       .  S
N243        N244   1.324       .  A
N243        C247   1.343       .  A
N243       Cu251   2.073       .  S
N244        C245   1.351       .  A
N244       Cu250   2.104       .  S
C245        C246   1.390       .  A
C245        H248   1.082       .  S
C246        C247   1.379       .  A
C247        H249   1.082       .  S
Cu250       N253   2.103       .  S
Cu251       N261   2.072       .  S
Cu252       N254   2.058       .  S
Cu252       N260   2.060       .  S
N253        N254   1.323       .  A
N253        C257   1.351       .  A
N254        C255   1.341       .  A
C255        C256   1.377       .  A
C255        H258   1.082   1_565  S
C256        C257   1.390       .  A
C257        H259   1.082       .  S
N260        N261   1.317       .  A
N260        C264   1.341   1_565  A
N261        C262   1.346       .  A
C262        C263   1.393   1_565  A
C262        H265   1.080       .  S
C263        C824   1.493       .  S
C263        C264   1.390       .  A
C264        H266   1.080       .  S
N267        N268   1.324       .  A
N267        C271   1.345       .  A
N267       Cu275   2.079       .  S
N268        C269   1.351       .  A
N268       Cu274   2.099       .  S
C269        C270   1.388       .  A
C269        H272   1.082       .  S
C270        C271   1.382       .  A
C271        H273   1.082       .  S
Cu274       N277   2.098       .  S
Cu275       N285   2.079       .  S
Cu276       N278   2.070       .  S
Cu276       N284   2.071       .  S
N277        N278   1.323       .  A
N277        C281   1.350       .  A
N278        C279   1.343       .  A
C279        C280   1.380       .  A
C279        H282   1.082   1_565  S
C280        C281   1.389       .  A
C281        H283   1.082       .  S
N284        N285   1.319       .  A
N284        C288   1.343   1_565  A
N285        C286   1.347       .  A
C286        C287   1.392   1_565  A
C286        H289   1.081       .  S
C287        C804   1.495       .  S
C287        C288   1.390       .  A
C288        H290   1.080       .  S
O291       Cu299   2.027       .  S
O291        C301   1.280       .  A
O292       Cu299   2.020       .  S
O292        C302   1.277       .  A
O293       Cu299   2.017       .  S
O293        C303   1.277       .  A
O294       Cu299   2.025       .  S
O294        C304   1.280       .  A
O295       Cu300   2.006       .  S
O295        C304   1.276       .  A
O296       Cu300   2.020       .  S
O296        C303   1.279       .  A
O297       Cu300   2.033       .  S
O297        C302   1.281       .  A
O298       Cu300   2.020       .  S
O298        C301   1.278       .  A
Cu299      Cu300   2.373       .  S
C301        C390   1.478       .  S
C302        C404   1.480       .  S
C303        C476   1.475       .  S
C304        C318   1.473       .  S
N305        N306   1.323       .  A
N305        C309   1.345       .  A
N305       Cu313   2.074       .  S
N306        C307   1.350       .  A
N306       Cu312   2.096       .  S
C307        C308   1.388       .  A
C307        H310   1.082       .  S
C308        C309   1.381       .  A
C309        H311   1.082   1_545  S
Cu312       N315   2.096       .  S
Cu313       N323   2.075       .  S
Cu314       N316   2.067       .  S
Cu314       N322   2.068       .  S
N315        N316   1.323       .  A
N315        C319   1.349       .  A
N316        C317   1.344       .  A
C317        C318   1.380       .  A
C317        H320   1.082       .  S
C318        C319   1.389       .  A
C319        H321   1.082       .  S
N322        N323   1.321       .  A
N322        C326   1.345       .  A
N323        C324   1.345   1_545  A
C324        C325   1.386       .  A
C324        H327   1.082       .  S
C325        C784   1.481       .  S
C325        C326   1.385   1_565  A
C326        H328   1.082       .  S
N329        N330   1.323       .  A
N329        C333   1.343       .  A
N329       Cu337   2.067       .  S
N330        C331   1.351       .  A
N330       Cu336   2.102       .  S
C331        C332   1.389       .  A
C331        H334   1.082       .  S
C332        C333   1.380       .  A
C333        H335   1.082   1_545  S
Cu336       N339   2.102       .  S
Cu337       N347   2.069       .  S
Cu338       N340   2.082       .  S
Cu338       N346   2.081       .  S
N339        N340   1.324       .  A
N339        C343   1.350       .  A
N340        C341   1.348       .  A
C341        C342   1.384       .  A
C341        H344   1.082       .  S
C342        C343   1.389       .  A
C343        H345   1.082       .  S
N346        N347   1.320       .  A
N346        C350   1.345       .  A
N347        C348   1.344   1_545  A
C348        C349   1.388       .  A
C348        H351   1.081       .  S
C349        C764   1.489       .  S
C349        C350   1.390   1_565  A
C350        H352   1.081       .  S
N353        N354   1.323       .  A
N353        C357   1.343       .  A
N353       Cu361   2.066       .  S
N354        C355   1.351       .  A
N354       Cu360   2.106       .  S
C355        C356   1.390       .  A
C355        H358   1.082       .  S
C356        C357   1.379       .  A
C357        H359   1.082       .  S
Cu360       N363   2.107       .  S
Cu361       N371   2.067       .  S
Cu362       N364   2.081       .  S
Cu362       N370   2.081       .  S
N363        N364   1.324       .  A
N363        C367   1.352       .  A
N364        C365   1.346       .  A
C365        C366   1.382       .  A
C365        H368   1.082       .  S
C366        C367   1.390       .  A
C367        H369   1.082       .  S
N370        N371   1.320       .  A
N370        C374   1.346       .  A
N371        C372   1.345       .  A
C372        C373   1.386       .  A
C372        H375   1.082       .  S
C373        C737   1.486       .  S
C373        C374   1.389       .  A
C374        H376   1.081       .  S
N377        N378   1.323       .  A
N377        C381   1.344       .  A
N377       Cu385   2.065       .  S
N378        C379   1.352       .  A
N378       Cu384   2.108       .  S
C379        C380   1.391       .  A
C379        H382   1.082       .  S
C380        C381   1.380       .  A
C381        H383   1.082       .  S
Cu384       N387   2.108       .  S
Cu385       N395   2.066       .  S
Cu386       N388   2.069       .  S
Cu386       N394   2.070       .  S
N387        N388   1.323       .  A
N387        C391   1.351       .  A
N388        C389   1.345       .  A
C389        C390   1.381       .  A
C389        H392   1.082       .  S
C390        C391   1.390       .  A
C391        H393   1.082       .  S
N394        N395   1.321       .  A
N394        C398   1.343       .  A
N395        C396   1.344       .  A
C396        C397   1.386       .  A
C396        H399   1.081       .  S
C397        C724   1.482       .  S
C397        C398   1.387       .  A
C398        H400   1.081       .  S
N401        N402   1.325       .  A
N401        C405   1.346       .  A
N401       Cu409   2.073       .  S
N402        C403   1.352       .  A
N402       Cu408   2.119       .  S
C403        C404   1.392       .  A
C403        H406   1.082       .  S
C404        C405   1.381       .  A
C405        H407   1.082       .  S
Cu408       N411   2.118       .  S
Cu409       N419   2.073       .  S
Cu410       N412   2.064       .  S
Cu410       N418   2.064       .  S
N411        N412   1.323       .  A
N411        C415   1.353       .  A
N412        C413   1.344       .  A
C413        C414   1.380       .  A
C413        H416   1.082   1_545  S
C414        C415   1.394       .  A
C415        H417   1.082       .  S
N418        N419   1.320       .  A
N418        C422   1.342   1_545  A
N419        C420   1.345       .  A
C420        C421   1.388   1_545  A
C420        H423   1.081       .  S
C421        C704   1.482       .  S
C421        C422   1.384       .  A
C422        H424   1.081       .  S
N425        N426   1.324       .  A
N425        C429   1.345       .  A
N425       Cu433   2.080       .  S
N426        C427   1.351       .  A
N426       Cu432   2.099       .  S
C427        C428   1.389       .  A
C427        H430   1.082       .  S
C428        C429   1.382       .  A
C429        H431   1.082       .  S
Cu432       N435   2.098       .  S
Cu433       N443   2.079       .  S
Cu434       N436   2.066       .  S
Cu434       N442   2.067       .  S
N435        N436   1.323       .  A
N435        C439   1.350       .  A
N436        C437   1.343       .  A
C437        C438   1.380       .  A
C437        H440   1.082   1_545  S
C438        C439   1.388       .  A
C439        H441   1.082       .  S
N442        N443   1.320       .  A
N442        C446   1.344   1_545  A
N443        C444   1.346       .  A
C444        C445   1.389   1_545  A
C444        H447   1.081       .  S
C445        C677   1.485       .  S
C445        C446   1.386       .  A
C446        H448   1.082       .  S
N449        N450   1.325       .  A
N449        C453   1.346       .  A
N449       Cu457   2.082       .  S
N450        C451   1.351       .  A
N450       Cu456   2.105       .  S
C451        C452   1.388       .  A
C451        H454   1.082       .  S
C452        C453   1.383       .  A
C453        H455   1.082       .  S
Cu456       N459   2.105       .  S
Cu457       N467   2.081       .  S
Cu458       N460   2.059       .  S
Cu458       N466   2.061       .  S
N459        N460   1.322       .  A
N459        C463   1.352       .  A
N460        C461   1.343       .  A
C461        C462   1.379       .  A
C461        H464   1.082       .  S
C462        C463   1.391       .  A
C463        H465   1.082       .  S
N466        N467   1.321       .  A
N466        C470   1.342       .  A
N467        C468   1.347       .  A
C468        C469   1.388       .  A
C468        H471   1.082       .  S
C469        C657   1.482       .  S
C469        C470   1.383       .  A
C470        H472   1.082       .  S
N473        N474   1.324       .  A
N473        C477   1.344       .  A
N473       Cu481   2.068       .  S
N474        C475   1.351       .  A
N474       Cu480   2.105       .  S
C475        C476   1.389       .  A
C475        H478   1.082       .  S
C476        C477   1.381       .  A
C477        H479   1.082       .  S
Cu480       N483   2.105       .  S
Cu481       N491   2.068       .  S
Cu482       N484   2.069       .  S
Cu482       N490   2.069       .  S
N483        N484   1.323       .  A
N483        C487   1.352       .  A
N484        C485   1.343       .  A
C485        C486   1.381       .  A
C485        H488   1.082       .  S
C486        C487   1.391       .  A
C487        H489   1.082       .  S
N490        N491   1.321       .  A
N490        C494   1.343       .  A
N491        C492   1.344       .  A
C492        C493   1.386       .  A
C492        H495   1.082       .  S
C493        C637   1.481       .  S
C493        C494   1.386       .  A
C494        H496   1.081       .  S
N497        C502   1.354       .  A
N497        C501   1.353   1_455  A
N497        H529   1.026       .  S
N498        C505   1.352       .  A
N498        C506   1.353       .  A
N499        C504   1.353       .  A
N499        C503   1.355   1_455  A
N499        H530   1.027       .  S
N500        C507   1.353       .  A
N500        C508   1.351       .  A
C501        C509   1.388       .  A
C501        C517   1.416       .  A
C502        C518   1.415       .  A
C502        C510   1.386       .  A
C503        C511   1.386       .  A
C503        C520   1.417       .  A
C504        C519   1.417       .  A
C504        C512   1.388       .  A
C505        C517   1.414       .  A
C505        C513   1.386       .  A
C506        C520   1.415       .  A
C506        C514   1.386       .  A
C507        C515   1.386       .  A
C507        C518   1.415       .  A
C508        C516   1.387       .  A
C508        C519   1.414       .  A
C509        C510   1.375   1_655  A
C509        H521   1.082       .  S
C510        H522   1.082       .  S
C511        C512   1.377   1_655  A
C511        H523   1.082       .  S
C512        H524   1.082       .  S
C513        C514   1.372       .  A
C513        H525   1.082       .  S
C514        H526   1.082       .  S
C515        C516   1.372       .  A
C515        H527   1.082       .  S
C516        H528   1.082       .  S
C517        C757   1.483       .  S
C518        C777   1.487       .  S
C519        C717   1.482       .  S
C520        C744   1.490       .  S
N531        C536   1.352       .  A
N531        C535   1.352       .  A
N531        H563   1.036       .  S
N532        C539   1.352       .  A
N532        C540   1.352       .  A
N533        C538   1.352       .  A
N533        C537   1.352       .  A
N533        H564   1.036       .  S
N534        C541   1.350       .  A
N534        C542   1.349       .  A
C535        C543   1.388       .  A
C535        C551   1.415       .  A
C536        C552   1.413       .  A
C536        C544   1.386       .  A
C537        C545   1.387       .  A
C537        C554   1.414       .  A
C538        C553   1.414       .  A
C538        C546   1.387       .  A
C539        C551   1.414       .  A
C539        C547   1.387       .  A
C540        C554   1.413       .  A
C540        C548   1.386       .  A
C541        C549   1.386       .  A
C541        C552   1.409       .  A
C542        C550   1.387       .  A
C542        C553   1.411       .  A
C543        C544   1.374       .  A
C543        H555   1.082       .  S
C544        H556   1.082       .  S
C545        C546   1.375       .  A
C545        H557   1.082       .  S
C546        H558   1.082       .  S
C547        C548   1.372       .  A
C547        H559   1.082       .  S
C548        H560   1.082       .  S
C549        C550   1.371       .  A
C549        H561   1.082       .  S
C550        H562   1.082       .  S
C551        C684   1.483       .  S
C552        C697   1.478       .  S
C553        C644   1.479       .  S
C554        C664   1.483       .  S
N565        C570   1.353       .  A
N565        C569   1.354       .  A
N565        H597   1.037       .  S
N566        C573   1.354       .  A
N566        C574   1.353       .  A
N567        C572   1.355       .  A
N567        C571   1.354       .  A
N567        H598   1.037       .  S
N568        C575   1.351       .  A
N568        C576   1.351       .  A
C569        C577   1.387       .  A
C569        C585   1.417       .  A
C570        C586   1.415       .  A
C570        C578   1.387       .  A
C571        C579   1.388       .  A
C571        C588   1.418       .  A
C572        C587   1.417       .  A
C572        C580   1.387       .  A
C573        C585   1.416       .  A
C573        C581   1.386       .  A
C574        C588   1.416       .  A
C574        C582   1.387       .  A
C575        C583   1.387       .  A
C575        C586   1.412       .  A
C576        C584   1.386       .  A
C576        C587   1.412       .  A
C577        C578   1.376       .  A
C577        H589   1.082       .  S
C578        H590   1.082       .  S
C579        C580   1.377       .  A
C579        H591   1.082       .  S
C580        H592   1.082       .  S
C581        C582   1.373       .  A
C581        H593   1.082       .  S
C582        H594   1.082       .  S
C583        C584   1.371       .  A
C583        H595   1.082       .  S
C584        H596   1.082       .  S
C585        C904   1.491       .  S
C586        C917   1.483       .  S
C587        C944   1.487       .  S
C588        C884   1.488       .  S
N599        C604   1.353   1_455  A
N599        C603   1.355       .  A
N599        H631   1.038       .  S
N600        C607   1.351       .  A
N600        C608   1.351       .  A
N601        C606   1.352   1_455  A
N601        C605   1.351       .  A
N601        H632   1.039       .  S
N602        C609   1.352       .  A
N602        C610   1.353       .  A
C603        C611   1.387       .  A
C603        C619   1.416       .  A
C604        C620   1.415       .  A
C604        C612   1.387       .  A
C605        C613   1.387       .  A
C605        C622   1.411       .  A
C606        C621   1.411       .  A
C606        C614   1.386       .  A
C607        C619   1.413       .  A
C607        C615   1.386       .  A
C608        C622   1.413       .  A
C608        C616   1.386       .  A
C609        C617   1.386       .  A
C609        C620   1.415       .  A
C610        C618   1.386       .  A
C610        C621   1.415       .  A
C611        C612   1.375   1_455  A
C611        H623   1.082       .  S
C612        H624   1.082       .  S
C613        C614   1.373   1_455  A
C613        H625   1.082       .  S
C614        H626   1.082   1_556  S
C615        C616   1.376       .  A
C615        H627   1.082       .  S
C616        H628   1.082       .  S
C617        C618   1.376       .  A
C617        H629   1.082       .  S
C618        H630   1.082       .  S
C619        C837   1.489       .  S
C620        C857   1.485       .  S
C621        C797   1.492       .  S
C622        C817   1.485       .  S
C633        C634   1.400       .  A
C633        C638   1.397       .  A
C633        F651   1.358       .  S
C634        C639   1.469       .  S
C634        C635   1.400       .  A
C635        C636   1.397       .  A
C635        F640   1.358       .  S
C636        C637   1.409       .  A
C636        F652   1.356       .  S
C637        C638   1.410       .  A
C638        F641   1.357       .  S
C639        C642   1.403       .  A
C639        C646   1.403       .  A
C642        C643   1.397       .  A
C642        F647   1.358       .  S
C643        C644   1.404       .  A
C643        F649   1.358       .  S
C644        C645   1.403       .  A
C645        C646   1.396       .  A
C645        F648   1.358       .  S
C646        F650   1.358       .  S
C653        C654   1.404       .  A
C653        C658   1.400       .  A
C653        F671   1.358       .  S
C654        C659   1.477       .  S
C654        C655   1.403       .  A
C655        C656   1.398       .  A
C655        F660   1.358       .  S
C656        C657   1.409       .  A
C656        F672   1.357       .  S
C657        C658   1.408       .  A
C658        F661   1.356       .  S
C659        C662   1.406       .  A
C659        C666   1.405       .  A
C662        C663   1.400       .  A
C662        F667   1.358       .  S
C663        C664   1.405       .  A
C663        F669   1.358       .  S
C664        C665   1.403       .  A
C665        C666   1.397       .  A
C665        F668   1.358       .  S
C666        F670   1.358       .  S
C673        C674   1.404       .  A
C673        C678   1.399       .  A
C673        F691   1.358       .  S
C674        C679   1.480       .  S
C674        C675   1.404       .  A
C675        C676   1.399       .  A
C675        F680   1.358       .  S
C676        C677   1.409       .  A
C676        F692   1.357       .  S
C677        C678   1.410       .  A
C678        F681   1.357       .  S
C679        C682   1.406       .  A
C679        C686   1.407       .  A
C682        C683   1.399       .  A
C682        F687   1.358       .  S
C683        C684   1.404       .  A
C683        F689   1.358       .  S
C684        C685   1.403       .  A
C685        C686   1.398       .  A
C685        F688   1.358       .  S
C686        F690   1.358       .  S
C693        C694   1.404       .  A
C693        C698   1.396       .  A
C693        F711   1.358       .  S
C694        C699   1.471       .  S
C694        C695   1.404       .  A
C695        C696   1.398       .  A
C695        F700   1.358       .  S
C696        C697   1.404       .  A
C696        F712   1.358       .  S
C697        C698   1.403       .  A
C698        F701   1.358       .  S
C699        C702   1.401       .  A
C699        C706   1.402       .  A
C702        C703   1.397       .  A
C702        F707   1.358       .  S
C703        C704   1.410       .  A
C703        F709   1.357       .  S
C704        C705   1.410       .  A
C705        C706   1.398       .  A
C705        F708   1.357       .  S
C706        F710   1.358       .  S
C713        C714   1.404       .  A
C713        C718   1.398       .  A
C713        F731   1.358       .  S
C714        C719   1.476       .  S
C714        C715   1.405       .  A
C715        C716   1.398       .  A
C715        F720   1.358       .  S
C716        C717   1.403       .  A
C716        F732   1.357       .  S
C717        C718   1.404       .  A
C718        F721   1.358       .  S
C719        C722   1.402       .  A
C719        C726   1.403       .  A
C722        C723   1.397       .  A
C722        F727   1.358       .  S
C723        C724   1.409       .  A
C723        F729   1.356       .  S
C724        C725   1.410       .  A
C725        C726   1.399       .  A
C725        F728   1.357       .  S
C726        F730   1.358       .  S
C733        C734   1.404       .  A
C733        C738   1.401       .  A
C733        F751   1.358       .  S
C734        C739   1.480       .  S
C734        C735   1.402       .  A
C735        C736   1.399       .  A
C735        F740   1.358       .  S
C736        C737   1.409       .  A
C736        F752   1.356       .  S
C737        C738   1.410       .  A
C738        F741   1.358       .  S
C739        C742   1.404       .  A
C739        C746   1.405       .  A
C742        C743   1.400       .  A
C742        F747   1.358       .  S
C743        C744   1.405       .  A
C743        F749   1.358       .  S
C744        C745   1.406       .  A
C745        C746   1.401       .  A
C745        F748   1.357       .  S
C746        F750   1.358       .  S
C753        C754   1.409       .  A
C753        C758   1.395       .  A
C753        F771   1.358       .  S
C754        C759   1.487       .  S
C754        C755   1.409       .  A
C755        C756   1.401       .  A
C755        F760   1.357   1_554  S
C756        C757   1.403       .  A
C756        F772   1.358   1_554  S
C757        C758   1.401       .  A
C758        F761   1.358       .  S
C759        C762   1.406       .  A
C759        C766   1.406       .  A
C762        C763   1.397       .  A
C762        F767   1.358       .  S
C763        C764   1.409       .  A
C763        F769   1.356       .  S
C764        C765   1.411       .  A
C765        C766   1.401       .  A
C765        F768   1.357       .  S
C766        F770   1.358       .  S
C773        C774   1.405       .  A
C773        C778   1.399       .  A
C773        F791   1.358       .  S
C774        C779   1.480       .  S
C774        C775   1.406       .  A
C775        C776   1.401       .  A
C775        F780   1.358       .  S
C776        C777   1.405       .  A
C776        F792   1.357       .  S
C777        C778   1.405       .  A
C778        F781   1.358       .  S
C779        C782   1.405       .  A
C779        C786   1.405       .  A
C782        C783   1.399       .  A
C782        F787   1.358       .  S
C783        C784   1.407       .  A
C783        F789   1.358       .  S
C784        C785   1.408       .  A
C785        C786   1.400       .  A
C785        F788   1.357       .  S
C786        F790   1.358       .  S
C793        C794   1.407       .  A
C793        C798   1.402       .  A
C793        F811   1.358   1_556  S
C794        C799   1.482       .  S
C794        C795   1.404       .  A
C795        C796   1.399       .  A
C795        F800   1.358       .  S
C796        C797   1.408       .  A
C796        F812   1.358       .  S
C797        C798   1.405       .  A
C798        F801   1.357   1_556  S
C799        C802   1.401       .  A
C799        C806   1.404       .  A
C802        C803   1.398       .  A
C802        F807   1.358       .  S
C803        C804   1.413       .  A
C803        F809   1.356       .  S
C804        C805   1.414       .  A
C805        C806   1.404       .  A
C805        F808   1.357   1_545  S
C806        F810   1.358       .  S
C813        C814   1.407       .  A
C813        C818   1.399       .  A
C813        F831   1.358   1_556  S
C814        C819   1.479       .  S
C814        C815   1.405       .  A
C815        C816   1.398       .  A
C815        F820   1.358       .  S
C816        C817   1.406       .  A
C816        F832   1.358       .  S
C817        C818   1.404       .  A
C818        F821   1.358   1_556  S
C819        C822   1.404       .  A
C819        C826   1.400       .  A
C822        C823   1.402       .  A
C822        F827   1.358       .  S
C823        C824   1.414       .  A
C823        F829   1.356   1_545  S
C824        C825   1.413       .  A
C825        C826   1.394       .  A
C825        F828   1.355       .  S
C826        F830   1.358       .  S
C833        C834   1.405       .  A
C833        C838   1.400       .  A
C833        F851   1.358       .  S
C834        C839   1.480       .  S
C834        C835   1.405       .  A
C835        C836   1.401       .  A
C835        F840   1.358       .  S
C836        C837   1.406       .  A
C836        F852   1.358   1_556  S
C837        C838   1.405       .  A
C838        F841   1.358       .  S
C839        C842   1.404       .  A
C839        C846   1.404       .  A
C842        C843   1.401       .  A
C842        F847   1.358       .  S
C843        C844   1.407       .  A
C843        F849   1.357       .  S
C844        C845   1.407       .  A
C845        C846   1.399       .  A
C845        F848   1.358       .  S
C846        F850   1.358       .  S
C853        C854   1.406       .  A
C853        C858   1.401       .  A
C853        F871   1.358   1_556  S
C854        C859   1.481       .  S
C854        C855   1.406       .  A
C855        C856   1.399       .  A
C855        F860   1.358       .  S
C856        C857   1.404       .  A
C856        F872   1.358       .  S
C857        C858   1.404       .  A
C858        F861   1.357   1_556  S
C859        C862   1.404       .  A
C859        C866   1.404       .  A
C862        C863   1.400       .  A
C862        F867   1.358       .  S
C863        C864   1.410       .  A
C863        F869   1.356       .  S
C864        C865   1.408       .  A
C865        C866   1.399       .  A
C865        F868   1.357       .  S
C866        F870   1.358       .  S
C873        C874   1.403       .  A
C873        C878   1.398       .  A
C873        F891   1.358       .  S
C874        C879   1.482       .  S
C874        C875   1.406       .  A
C875        C876   1.403       .  A
C875        F880   1.358       .  S
C876        C877   1.408       .  A
C876        F892   1.358       .  S
C877        C878   1.409       .  A
C878        F881   1.357       .  S
C879        C882   1.406       .  A
C879        C886   1.406       .  A
C882        C883   1.402       .  A
C882        F887   1.358       .  S
C883        C884   1.405       .  A
C883        F889   1.357       .  S
C884        C885   1.404       .  A
C885        C886   1.399       .  A
C885        F888   1.358       .  S
C886        F890   1.358       .  S
C893        C894   1.404       .  A
C893        C898   1.401       .  A
C893        F911   1.358       .  S
C894        C899   1.483       .  S
C894        C895   1.404       .  A
C895        C896   1.403       .  A
C895        F900   1.358       .  S
C896        C897   1.410       .  A
C896        F912   1.357       .  S
C897        C898   1.410       .  A
C898        F901   1.357       .  S
C899        C902   1.405       .  A
C899        C906   1.406       .  A
C902        C903   1.401       .  A
C902        F907   1.357       .  S
C903        C904   1.405       .  A
C903        F909   1.357       .  S
C904        C905   1.406       .  A
C905        C906   1.403       .  A
C905        F908   1.358       .  S
C906        F910   1.358       .  S
C913        C914   1.407       .  A
C913        C918   1.399       .  A
C913        F931   1.358       .  S
C914        C919   1.480       .  S
C914        C915   1.406       .  A
C915        C916   1.398       .  A
C915        F920   1.358       .  S
C916        C917   1.403       .  A
C916        F932   1.357       .  S
C917        C918   1.404       .  A
C918        F921   1.358       .  S
C919        C922   1.406       .  A
C919        C926   1.405       .  A
C922        C923   1.399       .  A
C922        F927   1.358       .  S
C923        C924   1.405       .  A
C923        F929   1.356       .  S
C924        C925   1.407       .  A
C925        C926   1.397       .  A
C925        F928   1.358       .  S
C926        F930   1.358       .  S
C933        C934   1.404       .  A
C933        C938   1.398       .  A
C933        F951   1.358       .  S
C934        C939   1.480       .  S
C934        C935   1.405       .  A
C935        C936   1.401       .  A
C935        F940   1.358       .  S
C936        C937   1.407       .  A
C936        F952   1.357       .  S
C937        C938   1.407       .  A
C938        F941   1.358       .  S
C939        C942   1.405       .  A
C939        C946   1.406       .  A
C942        C943   1.398       .  A
C942        F947   1.358       .  S
C943        C944   1.405       .  A
C943        F949   1.358       .  S
C944        C945   1.405       .  A
C945        C946   1.401       .  A
C945        F948   1.357       .  S
C946        F950   1.358       .  S
