geometry optimzed in LAMMPS
_audit_creation_date              2020-11-30 
_audit_creation_method            'lammps2cif' 
_symmetry_space_group_name_H-M    'P1' 
_symmetry_Int_Tables_number       1 
_symmetry_cell_setting            triclinic 
loop_ 
_symmetry_equiv_pos_as_xyz 
  x,y,z 
_cell_length_a                    39.33016822 
_cell_length_b                    38.91286919612116 
_cell_length_c                    39.434753271926574 
_cell_angle_alpha                 89.31399852975572 
_cell_angle_beta                  90.60975477276132 
_cell_angle_gamma                 89.72977966185145 
loop_ 
_atom_site_label 
_atom_site_type_symbol 
_atom_site_fract_x 
_atom_site_fract_y 
_atom_site_fract_z 
_atom_site_charge 
C1          C  0.15576332  0.76433759  0.99603126     0.81200
N2          N  0.13686911  0.76847250  0.02458838    -0.77100
C3          C  0.10990115  0.74726620  0.03073806     0.83600
N4          N  0.10277511  0.72151402  0.00867326    -0.77100
C5          C  0.12171248  0.71732304  0.98045331     0.83700
N6          N  0.14824132  0.73845165  0.97458054    -0.78800
C7          C  0.91562849  0.73006338  0.03821444     0.81200
N8          N  0.89415245  0.70259862  0.03961973    -0.77100
C9          C  0.86822407  0.69965049  0.01653877     0.83600
N10         N  0.86359545  0.72462957  0.99241974    -0.77100
C11         C  0.88455365  0.75223859  0.99121776     0.83700
N12         N  0.91063956  0.75463679  0.01386152    -0.78800
C13         C  0.02861511  0.68998813  0.14705194     0.87500
C14         C  0.99520555  0.68464337  0.12723546    -0.52800
C15         C  0.98484443  0.71226259  0.10792041     0.10400
C16         C  0.00939308  0.74330185  0.11058774     0.21300
C17         C  0.05444020  0.70066305  0.11990643    -0.53500
C18         C  0.04435676  0.72840352  0.10044104     0.10500
C19         C  0.02268661  0.72237785  0.16761797    -0.53000
C20         C  0.01284245  0.75065976  0.14909222     0.11100
H21         H  0.98118361  0.66060385  0.12805498     0.15600
H22         H  0.00187731  0.76629062  0.09546730     0.01300
H23         H  0.07718141  0.68578216  0.11459738     0.15900
H24         H  0.02527380  0.72214600  0.19502060     0.15700
C25         C  0.79663031  0.49087647  0.13882171     0.81200
N26         N  0.77174124  0.49009082  0.16243801    -0.77100
C27         C  0.74566693  0.51313373  0.16080525     0.83600
N28         N  0.74502954  0.53767627  0.13594643    -0.77100
C29         C  0.76984552  0.53869541  0.11216829     0.83700
N30         N  0.79536152  0.51489018  0.11352218    -0.78800
C31         C  0.79998059  0.47487573  0.85377986     0.81200
N32         N  0.80645686  0.50162643  0.87488511    -0.77100
C33         C  0.78393947  0.50977045  0.89960319     0.83600
N34         N  0.75532940  0.49059902  0.90350310    -0.77100
C35         C  0.74897718  0.46391471  0.88252910     0.83700
N36         N  0.77124842  0.45626418  0.85777610    -0.78800
C37         C  0.77190352  0.58178286  0.96555178     0.87500
C38         C  0.74027185  0.60342029  0.97360727    -0.52800
C39         C  0.74420607  0.62470704  0.00085502     0.10400
C40         C  0.77934624  0.62087723  0.01849830     0.21300
C41         C  0.80055116  0.60831861  0.96193343    -0.53500
C42         C  0.80484297  0.62869698  0.98979207     0.10500
C43         C  0.78007297  0.56197461  0.99827989    -0.53000
C44         C  0.78359689  0.58200866  0.02605801     0.11100
H45         H  0.71733508  0.60233159  0.95822707     0.15600
H46         H  0.78243955  0.63735919  0.04110358     0.01300
H47         H  0.81567684  0.61111672  0.93918127     0.15900
H48         H  0.78235031  0.53412428  0.99950700     0.15700
C49         C  0.86246778  0.48041018  0.77896826     0.87500
C50         C  0.88766179  0.45017062  0.78005911    -0.52800
C51         C  0.90328850  0.44427023  0.74968027     0.10400
C52         C  0.89161683  0.46928064  0.72097651     0.21300
C53         C  0.88315674  0.51087232  0.76578157    -0.53500
C54         C  0.89858267  0.50513488  0.73559023     0.10500
C55         C  0.83752519  0.47212955  0.75015429    -0.53000
C56         C  0.85236696  0.46642731  0.71941042     0.11100
H57         H  0.89340967  0.43605686  0.80331641     0.15600
H58         H  0.90428088  0.46486569  0.69635219     0.01300
H59         H  0.88654104  0.53453637  0.77976008     0.15900
H60         H  0.81041864  0.47075156  0.75447532     0.15700
C61         C  0.98832279  0.61846070  0.71436615     0.81200
N62         N  0.96853207  0.58982497  0.71411985    -0.77100
C63         C  0.97684205  0.56218219  0.73411290     0.83600
N64         N  0.00501214  0.56333931  0.75425279    -0.77100
C65         C  0.02464249  0.59185885  0.75499585     0.83700
N66         N  0.01602855  0.61949274  0.73533071    -0.78800
C67         C  0.01973357  0.35546033  0.73356306     0.81200
N68         N  0.02357384  0.32773497  0.75454930    -0.77100
C69         C  0.00148433  0.32203678  0.78023437     0.83600
N70         N  0.97487518  0.34407778  0.78436831    -0.77100
C71         C  0.97043840  0.37162251  0.76309054     0.83700
N72         N  0.99320809  0.37740510  0.73789823    -0.78800
C73         C  0.51824420  0.35030718  0.77435502     0.81200
N74         N  0.52145520  0.32677411  0.74926343    -0.77100
C75         C  0.49719049  0.32468854  0.72453372     0.83600
N76         N  0.46975174  0.34580680  0.72529493    -0.77100
C77         C  0.46668338  0.36981745  0.74971362     0.83700
N78         N  0.49100559  0.37202525  0.77437089    -0.78800
C79         C  0.51513820  0.60834023  0.75319230     0.81200
N80         N  0.49411570  0.58097979  0.75718350    -0.77100
C81         C  0.47534348  0.57716240  0.78581653     0.83600
N82         N  0.47886824  0.60038779  0.81113787    -0.77100
C83         C  0.49959338  0.62809311  0.80721707     0.83700
N84         N  0.51759088  0.63199865  0.77813490    -0.78800
C85         C  0.36079424  0.47969191  0.73337491     0.87500
C86         C  0.38577522  0.50996925  0.73386524    -0.52800
C87         C  0.40781076  0.50973659  0.76081963     0.10400
C88         C  0.40267742  0.47890077  0.78546837     0.21300
C89         C  0.38367121  0.44775123  0.73541390    -0.53500
C90         C  0.40600366  0.44720374  0.76248638     0.10500
C91         C  0.34321203  0.48059869  0.76765948    -0.53000
C92         C  0.36463267  0.47977409  0.79524989     0.11100
H93         H  0.38753494  0.52945927  0.71417204     0.15600
H94         H  0.42051678  0.47848915  0.80749970     0.01300
H95         H  0.38239423  0.42814712  0.71620522     0.15900
H96         H  0.31570246  0.47952042  0.76966698     0.15700
C97         C  0.77774200  0.46728577  0.65368415     0.81200
N98         N  0.78356866  0.44587685  0.62706370    -0.77100
C99         C  0.76212410  0.44701091  0.59943058     0.83600
N100        N  0.73584142  0.46985114  0.59850197    -0.77100
C101        C  0.72977286  0.49051945  0.62512889     0.83700
N102        N  0.75044758  0.48876243  0.65268010    -0.78800
C103        C  0.74329709  0.47173677  0.35544662     0.81200
N104        N  0.76887972  0.49372582  0.36276304    -0.77100
C105        C  0.78727527  0.49025911  0.39178687     0.83600
N106        N  0.78076724  0.46380236  0.41339863    -0.77100
C107        C  0.75592362  0.44073064  0.40594905     0.83700
N108        N  0.73730061  0.44455479  0.37668605    -0.78800
C109        C  0.80827826  0.33199704  0.49836290     0.87500
C110        C  0.79713697  0.35832199  0.47103997    -0.52800
C111        C  0.76926021  0.37739147  0.47956920     0.10400
C112        C  0.75486174  0.36799844  0.51467665     0.21300
C113        C  0.81320054  0.35309956  0.53083346    -0.53500
C114        C  0.78545285  0.37238494  0.53936780     0.10500
C115        C  0.77658388  0.31041430  0.50480193    -0.53000
C116        C  0.74836023  0.32885996  0.51328538     0.11100
H117        H  0.81128261  0.36294277  0.44792465     0.15600
H118        H  0.73173606  0.38283367  0.52113959     0.01300
H119        H  0.83684158  0.35333757  0.54530211     0.15900
H120        H  0.77692898  0.28255248  0.50323686     0.15700
C121        C  0.75427617  0.97263317  0.12852416     0.81200
N122        N  0.74703606  0.99880341  0.10654428    -0.77100
C123        C  0.76976734  0.02445292  0.10151635     0.83600
N124        N  0.79946933  0.02436414  0.11952563    -0.77100
C125        C  0.80657319  0.99858799  0.14218357     0.83700
N126        N  0.78398405  0.97255330  0.14634202    -0.78800
C127        C  0.72176349  0.01857719  0.85276746     0.81200
N128        N  0.72392034  0.04522974  0.87447012    -0.77100
C129        C  0.74704928  0.04466370  0.90028707     0.83600
N130        N  0.76856489  0.01732461  0.90403477    -0.77100
C131        C  0.76687502  0.99082341  0.88193790     0.83700
N132        N  0.74354950  0.99158330  0.85632444    -0.78800
C133        C  0.74080621  0.14655247  0.01219547     0.87500
C134        C  0.73893476  0.12373260  0.98084245    -0.52800
C135        C  0.76661528  0.10263775  0.97688007     0.10400
C136        C  0.79390901  0.10680431  0.00481698     0.21300
C137        C  0.74676318  0.12107637  0.04198745    -0.53500
C138        C  0.77453421  0.10017350  0.03798750     0.10500
C139        C  0.77429830  0.16592629  0.00881534    -0.53000
C140        C  0.80220900  0.14540852  0.00495444     0.11100
H141        H  0.71671598  0.12367794  0.96434958     0.15600
H142        H  0.81651694  0.08993798  0.00175294     0.01300
H143        H  0.73085386  0.11913458  0.06413569     0.15900
H144        H  0.77569018  0.19381529  0.00881124     0.15700
C145        C  0.55857394  0.72785899  0.90513141     0.87500
C146        C  0.54849219  0.69945148  0.88030397    -0.52800
C147        C  0.52194923  0.70806020  0.85915837     0.10400
C148        C  0.50764998  0.74450231  0.86497517     0.21300
C149        C  0.56530167  0.75953687  0.88267704    -0.53500
C150        C  0.53896608  0.76825038  0.86123794     0.10500
C151        C  0.52582814  0.73634851  0.92380563    -0.53000
C152        C  0.49876705  0.74490211  0.90318384     0.11100
H153        H  0.56192269  0.67507435  0.87877773     0.15600
H154        H  0.48574145  0.75116289  0.84820476     0.01300
H155        H  0.58924675  0.77330636  0.88308583     0.15900
H156        H  0.52453203  0.73585265  0.95129975     0.15700
C157        C  0.62409898  0.72695965  0.97993985     0.81200
N158        N  0.62731031  0.74500965  0.00898640    -0.77100
C159        C  0.65174362  0.73671402  0.03228632     0.83600
N160        N  0.67338364  0.71007049  0.02649012    -0.77100
C161        C  0.67006301  0.69138345  0.99762646     0.83700
N162        N  0.64542900  0.70002623  0.97446175    -0.78800
C163        C  0.37237969  0.77201417  0.97958464     0.81200
N164        N  0.39973954  0.76786317  0.95870592    -0.77100
C165        C  0.42349350  0.74301160  0.96621568     0.83600
N166        N  0.41978342  0.72302019  0.99434003    -0.77100
C167        C  0.39269011  0.72674625  0.01469458     0.83700
N168        N  0.36897728  0.75094609  0.00713529    -0.78800
C169        C  0.50319537  0.12584159  0.70925921     0.81200
N170        N  0.48071007  0.12130168  0.73490507    -0.77100
C171        C  0.48379989  0.09419495  0.75667244     0.83600
N172        N  0.51026850  0.07211268  0.75352964    -0.77100
C173        C  0.53317818  0.07634314  0.72820311     0.83700
N174        N  0.52953351  0.10323625  0.70592352    -0.78800
C175        C  0.65658991  0.99096549  0.78472959     0.87500
C176        C  0.62801461  0.01787143  0.78533217    -0.52800
C177        C  0.60733147  0.01770631  0.75725381     0.10400
C178        C  0.61689344  0.98985902  0.73130123     0.21300
C179        C  0.63811632  0.95670036  0.77998438    -0.53500
C180        C  0.61652950  0.95617819  0.75244585     0.10500
C181        C  0.67512868  0.99735838  0.75151379    -0.53000
C182        C  0.65476273  0.99626791  0.72349141     0.11100
H183        H  0.62406440  0.03508023  0.80643158     0.15600
H184        H  0.60006475  0.98940090  0.70850978     0.01300
H185        H  0.64139482  0.93540288  0.79770376     0.15900
H186        H  0.70240002  0.00142959  0.75017668     0.15700
C187        C  0.52872355  0.82765028  0.78199982     0.81200
N188        N  0.50865415  0.82890176  0.75375345    -0.77100
C189        C  0.51269787  0.85424441  0.73014716     0.83600
N190        N  0.53711190  0.87838408  0.73461314    -0.77100
C191        C  0.55779935  0.87700685  0.76244734     0.83700
N192        N  0.55331034  0.85178015  0.78615887    -0.78800
C193        C  0.98172715  0.08582718  0.73691203     0.81200
N194        N  0.01104499  0.06762766  0.73882880    -0.77100
C195        C  0.03349128  0.07222283  0.76485656     0.83600
N196        N  0.02664676  0.09636129  0.78894249    -0.77100
C197        C  0.99723122  0.11531784  0.78662957     0.83700
N198        N  0.97510613  0.10969417  0.76061166    -0.78800
C199        C  0.03695060  0.89794024  0.74325616     0.81200
N200        N  0.01039530  0.89767183  0.76499170    -0.77100
C201        C  0.98641295  0.87281396  0.76312465     0.83600
N202        N  0.98845704  0.84851133  0.73891614    -0.77100
C203        C  0.01429171  0.84884853  0.71632092     0.83700
N204        N  0.03897439  0.87324434  0.71895427    -0.78800
C205        C  0.15599100  0.99393812  0.70028732     0.87500
C206        C  0.13594957  0.96030080  0.70036249    -0.52800
C207        C  0.11549713  0.95574213  0.72780167     0.10400
C208        C  0.11791727  0.98553894  0.75376364     0.21300
C209        C  0.12891992  0.02200034  0.70426675    -0.53500
C210        C  0.10895331  0.01800120  0.73225180     0.10500
C211        C  0.17584951  0.99382662  0.73375662    -0.53000
C212        C  0.15646365  0.98918867  0.76181910     0.11100
H213        H  0.13675827  0.94229485  0.67955647     0.15600
H214        H  0.10195552  0.98228180  0.77658693     0.01300
H215        H  0.12497473  0.04260229  0.68578641     0.15900
H216        H  0.20316131  0.99774453  0.73518571     0.15700
C217        C  0.15142513  0.71231272  0.53703019     0.81200
N218        N  0.12818170  0.71014199  0.56200336    -0.77100
C219        C  0.10153302  0.73235617  0.56301860     0.83600
N220        N  0.09852821  0.75764808  0.53895817    -0.77100
C221        C  0.12236784  0.76047813  0.51422612     0.83700
N222        N  0.14864324  0.73766943  0.51322566    -0.78800
C223        C  0.86224543  0.77851523  0.50518022     0.81200
N224        N  0.88145820  0.78375285  0.53377874    -0.77100
C225        C  0.90597470  0.76037824  0.54314097     0.83600
N226        N  0.91116886  0.73223958  0.52368276    -0.77100
C227        C  0.89231019  0.72720156  0.49529777     0.83700
N228        N  0.86788271  0.75021352  0.48625182    -0.78800
C229        C  0.99400958  0.70726011  0.66666942     0.87500
C230        C  0.96306418  0.70784398  0.64244489    -0.52800
C231        C  0.96139391  0.73608358  0.62144687     0.10400
C232        C  0.99096589  0.76160800  0.62694635     0.21300
C233        C  0.02457451  0.71124426  0.64323707    -0.53500
C234        C  0.02321236  0.73947271  0.62200993     0.10500
C235        C  0.99210527  0.74116798  0.68569552    -0.53000
C236        C  0.99090800  0.76963048  0.66527128     0.11100
H237        H  0.94487276  0.68714167  0.64030108     0.15600
H238        H  0.98975178  0.78473795  0.61021591     0.01300
H239        H  0.04487548  0.69237104  0.64357588     0.15900
H240        H  0.99202833  0.74260781  0.71320403     0.15700
C241        C  0.78803851  0.84497434  0.50303285     0.87500
C242        C  0.79144437  0.86627284  0.47006492    -0.52800
C243        C  0.76239232  0.88375750  0.46069374     0.10400
C244        C  0.73256915  0.87787382  0.48526879     0.21300
C245        C  0.77590701  0.87083453  0.52937938    -0.53500
C246        C  0.74696336  0.88813518  0.52014332     0.10500
C247        C  0.75734892  0.82148266  0.49699879    -0.53000
C248        C  0.72802209  0.83850355  0.48781829     0.11100
H249        H  0.81519059  0.86815495  0.45651069     0.15600
H250        H  0.70896000  0.89208590  0.47802772     0.01300
H251        H  0.79005043  0.87649680  0.55242543     0.15900
H252        H  0.75891940  0.79371514  0.49980454     0.15700
C253        C  0.69542414  0.97286253  0.63980290     0.81200
N254        N  0.69401436  0.94763704  0.61615630    -0.77100
C255        C  0.71788714  0.94609408  0.59142438     0.83600
N256        N  0.74355488  0.96935248  0.59104347    -0.77100
C257        C  0.74585578  0.99365346  0.61524831     0.83700
N258        N  0.72190235  0.99526474  0.63960913    -0.78800
C259        C  0.80400610  0.97754356  0.33904393     0.81200
N260        N  0.80603919  0.95016204  0.36094331    -0.77100
C261        C  0.78125449  0.94496116  0.38443163     0.83600
N262        N  0.75471402  0.96745834  0.38588852    -0.77100
C263        C  0.75242299  0.99441712  0.36384730     0.83700
N264        N  0.77720338  0.99952784  0.34076487    -0.78800
C265        C  0.65538675  0.77138941  0.49593409     0.81200
N266        N  0.64973810  0.74627013  0.51944189    -0.77100
C267        C  0.62281840  0.72489056  0.51646354     0.83600
N268        N  0.60190582  0.72782821  0.48906712    -0.77100
C269        C  0.60710232  0.75263393  0.46505233     0.83700
N270        N  0.63383685  0.77473419  0.46862266    -0.78800
C271        C  0.41420536  0.69762521  0.46351366     0.81200
N272        N  0.41767920  0.72358411  0.48605564    -0.77100
C273        C  0.39564938  0.72654038  0.51207214     0.83600
N274        N  0.37017117  0.70352876  0.51562409    -0.77100
C275        C  0.36681536  0.67700655  0.49377300     0.83700
N276        N  0.38874878  0.67433858  0.46749455    -0.78800
C277        C  0.51468787  0.69214514  0.35000926     0.87500
C278        C  0.54740043  0.69620237  0.37138307    -0.52800
C279        C  0.54648264  0.72304217  0.39349865     0.10400
C280        C  0.51274219  0.74364041  0.39197064     0.21300
C281        C  0.48638674  0.68935010  0.37623815    -0.53500
C282        C  0.48521879  0.71614483  0.39847884     0.10500
C283        C  0.50884925  0.72704000  0.33285761    -0.53000
C284        C  0.50784875  0.75432690  0.35437000     0.11100
H285        H  0.56851660  0.67823692  0.37128981     0.15600
H286        H  0.51190395  0.76546071  0.40985120     0.01300
H287        H  0.46938036  0.66756162  0.37693252     0.15900
H288        H  0.50476489  0.72957559  0.30565828     0.15700
C289        C  0.38924895  0.19676558  0.49371091     0.81200
N290        N  0.38808278  0.22758488  0.47711583    -0.77100
C291        C  0.40978122  0.25315140  0.48568228     0.83600
N292        N  0.43260629  0.24801355  0.51131857    -0.77100
C293        C  0.43383370  0.21753616  0.52862781     0.83700
N294        N  0.41220689  0.19182493  0.51959718    -0.78800
C295        C  0.52411058  0.26380207  0.65250313     0.87500
C296        C  0.55535003  0.26165425  0.62953647    -0.52800
C297        C  0.55402951  0.23525157  0.60673006     0.10400
C298        C  0.52175201  0.21283204  0.61007659     0.21300
C299        C  0.49378745  0.26557872  0.62764383    -0.53500
C300        C  0.49231494  0.23903382  0.60524510     0.10500
C301        C  0.52194684  0.22858773  0.66962428    -0.53000
C302        C  0.52048609  0.20164700  0.64789710     0.11100
H303        H  0.57585425  0.28011196  0.63082192     0.15600
H304        H  0.52091820  0.19108726  0.59211372     0.01300
H305        H  0.47575959  0.28682164  0.62699670     0.15900
H306        H  0.52221471  0.22533133  0.69704012     0.15700
C307        C  0.62642497  0.24670498  0.54102642     0.81200
N308        N  0.62075570  0.22044643  0.51910440    -0.77100
C309        C  0.64268902  0.21455594  0.49344353     0.83600
N310        N  0.67018277  0.23493767  0.48965532    -0.77100
C311        C  0.67574913  0.26176369  0.51058302     0.83700
N312        N  0.65386689  0.26762785  0.53647676    -0.78800
C313        C  0.22908279  0.97957982  0.63664787     0.81200
N314        N  0.22871201  0.00635403  0.61392968    -0.77100
C315        C  0.25434072  0.00965766  0.59108925     0.83600
N316        N  0.27995865  0.98603623  0.59106344    -0.77100
C317        C  0.28016190  0.95933931  0.61337566     0.83700
N318        N  0.25485609  0.95628046  0.63615504    -0.78800
C319        C  0.32417276  0.12239466  0.50185036     0.87500
C320        C  0.31973839  0.09791388  0.53214892    -0.52800
C321        C  0.29036675  0.07954378  0.53161786     0.10400
C322        C  0.26767824  0.08741449  0.50030137     0.21300
C323        C  0.32075489  0.09911712  0.47055011    -0.53500
C324        C  0.29106766  0.08047182  0.46988592     0.10500
C325        C  0.29192498  0.14474425  0.50125905    -0.53000
C326        C  0.26218735  0.12666521  0.50006109     0.11100
H327        H  0.33895262  0.09439839  0.55194499     0.15600
H328        H  0.24368344  0.07248446  0.49974352     0.01300
H329        H  0.34027840  0.09727045  0.45145769     0.15900
H330        H  0.29290225  0.17259641  0.50055717     0.15700
C331        C  0.18993015  0.19442101  0.50511470     0.81200
N332        N  0.16606500  0.18754700  0.48073155    -0.77100
C333        C  0.13744121  0.20748860  0.47796008     0.83600
N334        N  0.13266876  0.23353984  0.50018891    -0.77100
C335        C  0.15647501  0.24053025  0.52416257     0.83700
N336        N  0.18519839  0.22133041  0.52612021    -0.78800
N337        N  0.16185483  0.31446971  0.57926175    -0.26300
N338        N  0.13067444  0.30395006  0.58578903    -0.34200
C339        C  0.12349490  0.27657562  0.56647479     0.02000
C340        C  0.15180920  0.26926510  0.54736546     0.08100
C341        C  0.17570354  0.29359548  0.55618934    -0.05000
H342        H  0.09990722  0.26241875  0.56714756     0.08700
H343        H  0.20112267  0.29622099  0.54623269     0.09900
Cu344      Cu  0.10077788  0.32631448  0.62239326     0.44200
Cu345      Cu  0.18330086  0.35750457  0.60140685     0.42000
Cu346      Cu  0.13005307  0.40683752  0.65869174     0.43900
N347        N  0.07763194  0.35018733  0.66276919    -0.33700
N348        N  0.08716411  0.38000320  0.67548862    -0.28000
C349        C  0.06676781  0.38749221  0.70173199    -0.04100
C350        C  0.04379860  0.36088900  0.70578252     0.08200
C351        C  0.05164060  0.33763387  0.68090105     0.02000
H352        H  0.06953258  0.40976852  0.71770229     0.09600
H353        H  0.03961770  0.31311760  0.67653383     0.08700
N354        N  0.17784652  0.42302202  0.64181249    -0.35100
N355        N  0.19718270  0.40454050  0.62157208    -0.27300
C356        C  0.22631419  0.42150612  0.61571785    -0.02600
C357        C  0.22539559  0.45209417  0.63303093     0.06000
C358        C  0.19433225  0.45237652  0.64925288     0.04100
H359        H  0.24653290  0.41237086  0.59972565     0.09200
H360        H  0.18446821  0.47239166  0.66529702     0.08100
N361        N  0.38361411  0.80109912  0.56477371    -0.26300
N362        N  0.41453968  0.79159504  0.57463183    -0.34200
C363        C  0.42414191  0.76404705  0.55667726     0.02000
C364        C  0.39772791  0.75570995  0.53498512     0.08100
C365        C  0.37240806  0.77948675  0.54085410    -0.05000
H366        H  0.44808128  0.75050767  0.55994662     0.08700
H367        H  0.34778525  0.78117781  0.52843338     0.09900
Cu368      Cu  0.44103296  0.81533988  0.61356588     0.44200
Cu369      Cu  0.35817078  0.84339373  0.58349829     0.42000
Cu370      Cu  0.40274826  0.89280140  0.64699540     0.43900
N371        N  0.45997867  0.84131572  0.65532528    -0.33700
N372        N  0.44664930  0.87011425  0.66689747    -0.28000
C373        C  0.46450152  0.87999308  0.69438408    -0.04100
C374        C  0.48996938  0.85607299  0.70050603     0.08200
C375        C  0.48623737  0.83177329  0.67552293     0.02000
H376        H  0.45843604  0.90206241  0.70962838     0.09600
H377        H  0.50121233  0.80861973  0.67248205     0.08700
N378        N  0.35602353  0.90712042  0.62603921    -0.35100
N379        N  0.33972240  0.88893667  0.60291829    -0.27300
C380        C  0.31031528  0.90489640  0.59466204    -0.02600
C381        C  0.30808563  0.93441391  0.61354557     0.06000
C382        C  0.33731420  0.93509087  0.63323123     0.04100
H383        H  0.29193749  0.89562925  0.57636433     0.09200
H384        H  0.34444685  0.95441461  0.65145584     0.08100
C385        C  0.22182674  0.50459989  0.36274844     0.81200
N386        N  0.21722759  0.52841661  0.38697910    -0.77100
C387        C  0.24070288  0.53279740  0.41192616     0.83600
N388        N  0.26868449  0.51192647  0.41348425    -0.77100
C389        C  0.27328790  0.48742750  0.38945887     0.83700
N390        N  0.25009626  0.48428991  0.36381418    -0.78800
C391        C  0.21860999  0.64475722  0.51191800     0.87500
C392        C  0.22339830  0.62265789  0.48021345    -0.52800
C393        C  0.25073024  0.60049652  0.48244304     0.10400
C394        C  0.27134727  0.60384282  0.51560940     0.21300
C395        C  0.21705515  0.61849680  0.54120863    -0.53500
C396        C  0.24467214  0.59717965  0.54345096     0.10500
C397        C  0.25232326  0.66342922  0.51665274    -0.53000
C398        C  0.27994425  0.64235815  0.51808784     0.11100
H399        H  0.20608143  0.62398409  0.45864097     0.15600
H400        H  0.29388218  0.58656291  0.51705769     0.01300
H401        H  0.19567580  0.61656192  0.55835194     0.15900
H402        H  0.25427474  0.69124039  0.51792000     0.15700
C403        C  0.25162894  0.47888009  0.63281575     0.81200
N404        N  0.27814528  0.47718786  0.65523057    -0.77100
C405        C  0.30340689  0.50097191  0.65384232     0.83600
N406        N  0.30211784  0.52611104  0.62967959    -0.77100
C407        C  0.27570922  0.52811677  0.60733961     0.83700
N408        N  0.25040478  0.50442881  0.60899274    -0.78800
C409        C  0.02673001  0.62555413  0.22326498     0.81200
N410        N  0.05590581  0.60625261  0.22472947    -0.77100
C411        C  0.06256399  0.58618703  0.25279581     0.83600
N412        N  0.04035259  0.58578888  0.27892430    -0.77100
C413        C  0.01137117  0.60457993  0.27733011     0.83700
N414        N  0.00474179  0.62442660  0.24962168    -0.78800
C415        C  0.17727880  0.48866683  0.27636328     0.87500
C416        C  0.15610853  0.52126133  0.26888449    -0.52800
C417        C  0.13249022  0.51756787  0.24326288     0.10400
C418        C  0.13327949  0.48166747  0.22693723     0.21300
C419        C  0.15114532  0.46041442  0.28280213    -0.53500
C420        C  0.12776006  0.45654058  0.25703458     0.10500
C421        C  0.19323769  0.47962599  0.24262823    -0.53000
C422        C  0.17061071  0.47630793  0.21645432     0.11100
H423        H  0.15925822  0.54473238  0.28312125     0.15600
H424        H  0.11465095  0.47869161  0.20580836     0.01300
H425        H  0.15152120  0.44552638  0.30614972     0.15900
H426        H  0.22050727  0.47639699  0.23953814     0.15700
C427        C  0.23145527  0.47847344  0.14160201     0.81200
N428        N  0.25880055  0.49861226  0.13597033    -0.77100
C429        C  0.28174858  0.49057361  0.11208623     0.83600
N430        N  0.27764521  0.46165977  0.09359228    -0.77100
C431        C  0.25026166  0.44097188  0.09897524     0.83700
N432        N  0.22717447  0.44942272  0.12316565    -0.78800
N433        N  0.40052519  0.67110004  0.08880689    -0.26300
N434        N  0.37364476  0.65773176  0.07353618    -0.34200
C435        C  0.36550040  0.67700348  0.04609286     0.02000
C436        C  0.38848638  0.70355554  0.04379936     0.08100
C437        C  0.41061807  0.69888533  0.07096879    -0.05000
H438        H  0.34550375  0.67096279  0.02806476     0.08700
H439        H  0.43276870  0.71409299  0.07692750     0.09900
Cu440      Cu  0.35177792  0.61150967  0.08760701     0.44200
Cu441      Cu  0.42329452  0.64971723  0.13206972     0.42000
Cu442      Cu  0.39474905  0.56393034  0.15456009     0.43900
N443        N  0.33845175  0.56208793  0.10206046    -0.33700
N444        N  0.35424586  0.54460289  0.12651281    -0.28000
C445        C  0.33820263  0.51450560  0.13122909    -0.04100
C446        C  0.31149025  0.51261943  0.10821369     0.08200
C447        C  0.31207199  0.54350949  0.09055261     0.02000
H448        H  0.34441871  0.49611835  0.15114298     0.09600
H449        H  0.29360572  0.55259008  0.07192918     0.08700
N450        N  0.43375831  0.58923596  0.17981453    -0.35100
N451        N  0.44342606  0.62094510  0.17238361    -0.27300
C452        C  0.46906602  0.62971476  0.19341791    -0.02600
C453        C  0.47602228  0.60208737  0.21477506     0.06000
C454        C  0.45341917  0.57678523  0.20531299     0.04100
H455        H  0.48257138  0.65384028  0.19228143     0.09200
H456        H  0.45153380  0.55114432  0.21600819     0.08100
N457        N  0.86243047  0.54308872  0.38542500    -0.26300
N458        N  0.84874210  0.55614316  0.41295286    -0.34200
C459        C  0.82076122  0.53798129  0.42092084     0.02000
C460        C  0.81674505  0.51249580  0.39709831     0.08100
C461        C  0.84333933  0.51668342  0.37488319    -0.05000
H462        H  0.80376852  0.54396479  0.44143087     0.08700
H463        H  0.84802591  0.50209131  0.35220615     0.09900
Cu464      Cu  0.86710933  0.60023472  0.43575884     0.44200
Cu465      Cu  0.90515338  0.56269501  0.36168679     0.42000
Cu466      Cu  0.94050701  0.64038899  0.39466068     0.43900
N467        N  0.88811908  0.64683473  0.44997904    -0.33700
N468        N  0.91494045  0.66104487  0.43553937    -0.28000
C469        C  0.92128980  0.69134838  0.45036457    -0.04100
C470        C  0.89730388  0.69637168  0.47511232     0.08200
C471        C  0.87652154  0.66792334  0.47408348     0.02000
H472        H  0.94125033  0.70887803  0.44293727     0.09600
H473        H  0.85434693  0.66309985  0.48937776     0.08700
N474        N  0.95880649  0.61667408  0.35157633    -0.35100
N475        N  0.94595846  0.58782688  0.33967646    -0.27300
C476        C  0.96290704  0.57896839  0.31160300    -0.02600
C477        C  0.98739971  0.60353273  0.30552399     0.06000
C478        C  0.98413248  0.62711505  0.33123179     0.04100
H479        H  0.95748200  0.55656106  0.29650233     0.09200
H480        H  0.99897949  0.65012604  0.33486798     0.08100
C481        C  0.51190305  0.34722190  0.22229440     0.81200
N482        N  0.54140536  0.36425965  0.21556793    -0.77100
C483        C  0.55195228  0.39011265  0.23631566     0.83600
N484        N  0.53272033  0.39870353  0.26353394    -0.77100
C485        C  0.50321906  0.38207540  0.26991009     0.83700
N486        N  0.49326273  0.35619819  0.24955593    -0.78800
C487        C  0.67426779  0.48340966  0.22085851     0.87500
C488        C  0.64798871  0.45405238  0.21971785    -0.52800
C489        C  0.62893876  0.45126266  0.24865298     0.10400
C490        C  0.63880286  0.47749551  0.27606105     0.21300
C491        C  0.65301801  0.51552372  0.22884984    -0.53500
C492        C  0.63439742  0.51237049  0.25780608     0.10500
C493        C  0.69563637  0.47603918  0.25278632    -0.53000
C494        C  0.67736303  0.47302927  0.28188821     0.11100
H495        H  0.64407189  0.43823936  0.19756588     0.15600
H496        H  0.62366113  0.47529401  0.29963679     0.01300
H497        H  0.65195043  0.53817820  0.21257851     0.15900
H498        H  0.72304867  0.47285499  0.25199195     0.15700
C499        C  0.50459218  0.59868363  0.23880910     0.81200
N500        N  0.50754554  0.62037312  0.26533853    -0.77100
C501        C  0.53460215  0.61786633  0.28708367     0.83600
N502        N  0.55926652  0.59397856  0.28145514    -0.77100
C503        C  0.55658165  0.57240910  0.25460907     0.83700
N504        N  0.52914539  0.57484055  0.23351209    -0.78800
C505        C  0.48069960  0.12797774  0.22279039     0.81200
N506        N  0.46013944  0.09983543  0.22462457    -0.77100
C507        C  0.46610932  0.07488271  0.24871216     0.83600
N508        N  0.49268959  0.07822018  0.27060545    -0.77100
C509        C  0.51282628  0.10631292  0.26931796     0.83700
N510        N  0.50682916  0.13104322  0.24548539    -0.78800
C511        C  0.66046576  0.19936250  0.03819794     0.81200
N512        N  0.63613709  0.19739234  0.06224918    -0.77100
C513        C  0.60927207  0.21944986  0.06170680     0.83600
N514        N  0.60662563  0.24365043  0.03659070    -0.77100
C515        C  0.63112666  0.24610808  0.01262398     0.83700
N516        N  0.65806736  0.22409447  0.01360354    -0.78800
C517        C  0.49791896  0.20860608  0.16446522     0.87500
C518        C  0.46658031  0.21355640  0.14106353    -0.52800
C519        C  0.46911958  0.24117776  0.11908004     0.10400
C520        C  0.50259741  0.26142010  0.12318570     0.21300
C521        C  0.52801311  0.20664007  0.14009812    -0.53500
C522        C  0.53064302  0.23421151  0.11832494     0.10500
C523        C  0.50221305  0.24304053  0.18226645    -0.53000
C524        C  0.50493575  0.27083771  0.16099288     0.11100
H525        H  0.44489970  0.19646219  0.14093681     0.15600
H526        H  0.50466038  0.28385384  0.10565993     0.01300
H527        H  0.54515265  0.18476565  0.14024058     0.15900
H528        H  0.50482844  0.24483215  0.20963238     0.15700
N529        N  0.67398596  0.41079778  0.87473888    -0.26300
N530        N  0.68605432  0.40000862  0.90443878    -0.34200
C531        C  0.71345307  0.41883649  0.91275061     0.02000
C532        C  0.71888422  0.44242961  0.88695329     0.08100
C533        C  0.69375152  0.43634610  0.86305324    -0.05000
H534        H  0.72909972  0.41464192  0.93517688     0.08700
H535        H  0.69030595  0.44925137  0.83881935     0.09900
Cu536      Cu  0.66619088  0.35840026  0.93072379     0.44200
Cu537      Cu  0.63162324  0.38976249  0.85127447     0.42000
Cu538      Cu  0.58825972  0.32136927  0.89685587     0.43900
N539        N  0.64209395  0.31630506  0.95220510    -0.33700
N540        N  0.61303550  0.30351068  0.94090893    -0.28000
C541        C  0.60409193  0.27704600  0.96127160    -0.04100
C542        C  0.62899173  0.27281375  0.98605993     0.08200
C543        C  0.65276365  0.29791686  0.97942716     0.02000
H544        H  0.58169376  0.26137960  0.95766604     0.09600
H545        H  0.67596895  0.30268424  0.99351331     0.08700
N546        N  0.57185556  0.34134484  0.84991909    -0.35100
N547        N  0.58779652  0.36627974  0.83351231    -0.27300
C548        C  0.57114977  0.37329761  0.80421178    -0.02600
C549        C  0.54356267  0.35163883  0.80193909     0.06000
C550        C  0.54467184  0.33173356  0.83126458     0.04100
H551        H  0.57869241  0.39261517  0.78588800     0.09200
H552        H  0.52703120  0.31177258  0.83850844     0.08100
N553        N  0.64894544  0.14339738  0.43530001    -0.26300
N554        N  0.62006529  0.15756695  0.42461939    -0.34200
C555        C  0.61215691  0.18377868  0.44518500     0.02000
C556        C  0.63736508  0.18624034  0.46975771     0.08100
C557        C  0.66047485  0.16059238  0.46244131    -0.05000
H558        H  0.59051915  0.20079283  0.44154436     0.08700
H559        H  0.68421563  0.15515739  0.47556783     0.09900
Cu560      Cu  0.59461764  0.14224107  0.38074973     0.44200
Cu561      Cu  0.67228561  0.10209756  0.41200783     0.42000
Cu562      Cu  0.63638705  0.07394794  0.33310192     0.43900
N563        N  0.57531833  0.12166279  0.33597831    -0.33700
N564        N  0.59027866  0.09654516  0.31927517    -0.28000
C565        C  0.57050163  0.08782419  0.29275916    -0.04100
C566        C  0.54211573  0.10876796  0.29238481     0.08200
C567        C  0.54583190  0.12991769  0.32008440     0.02000
H568        H  0.57630415  0.06754998  0.27513500     0.09600
H569        H  0.52802097  0.14912551  0.32862775     0.08700
N570        N  0.67986598  0.05217026  0.35475020    -0.35100
N571        N  0.69224073  0.06178822  0.38444505    -0.27300
C572        C  0.71942270  0.04211815  0.39248980    -0.02600
C573        C  0.72458558  0.01935975  0.36644615     0.06000
C574        C  0.69928123  0.02651831  0.34275818     0.04100
H575        H  0.73473717  0.04471119  0.41529896     0.09200
H576        H  0.69501455  0.01377368  0.31889695     0.08100
C577        C  0.87334991  0.25677790  0.49760784     0.81200
N578        N  0.89715194  0.26274638  0.47333064    -0.77100
C579        C  0.91935605  0.23729354  0.46477197     0.83600
N580        N  0.91816797  0.20641501  0.48119756    -0.77100
C581        C  0.89459281  0.20045954  0.50529592     0.83700
N582        N  0.87232891  0.22563517  0.51344997    -0.78800
N583        N  0.90718497  0.12937192  0.56422049    -0.26300
N584        N  0.87660927  0.12218547  0.55213662    -0.34200
C585        C  0.86797914  0.14551796  0.52809801     0.02000
C586        C  0.89477996  0.16796002  0.52434508     0.08100
C587        C  0.91917041  0.15714690  0.54767389    -0.05000
H588        H  0.84365165  0.14663829  0.51509457     0.08700
H589        H  0.94285665  0.16985264  0.55372592     0.09900
Cu590      Cu  0.84689474  0.08314712  0.57128397     0.44200
Cu591      Cu  0.92812662  0.10452028  0.60645368     0.42000
Cu592      Cu  0.86407024  0.06180236  0.65892417     0.43900
N593        N  0.81675032  0.05066732  0.59948076    -0.33700
N594        N  0.82156982  0.04431518  0.63220172    -0.28000
C595        C  0.79633332  0.02386851  0.64324632    -0.04100
C596        C  0.77516507  0.01676715  0.61594397     0.08200
C597        C  0.78901492  0.03386665  0.58861516     0.02000
H598        H  0.79425210  0.01391222  0.66887791     0.09600
H599        H  0.77935557  0.03452546  0.56281147     0.08700
N600        N  0.91270190  0.07492172  0.67594878    -0.35100
N601        N  0.93634612  0.08856899  0.65634717    -0.27300
C602        C  0.96488597  0.09311270  0.67484119    -0.02600
C603        C  0.95882874  0.08212979  0.70763187     0.06000
C604        C  0.92550147  0.07103059  0.70759583     0.04100
H605        H  0.98781384  0.10494780  0.66547013     0.09200
H606        H  0.91155954  0.06089176  0.72898828     0.08100
N607        N  0.89946749  0.33431458  0.08484345    -0.26300
N608        N  0.91815078  0.31329476  0.10405519    -0.34200
C609        C  0.92372573  0.28401987  0.08710137     0.02000
C610        C  0.90835772  0.28702781  0.05553777     0.08100
C611        C  0.89295821  0.31904508  0.05501572    -0.05000
H612        H  0.93763857  0.26205743  0.09714562     0.08700
H613        H  0.87711718  0.32992565  0.03495242     0.09900
Cu614      Cu  0.93501772  0.32530406  0.15253948     0.44200
Cu615      Cu  0.88112464  0.38150605  0.10130398     0.42000
Cu616      Cu  0.90359642  0.40577321  0.18670730     0.43900
N617        N  0.95435758  0.34758529  0.19620837    -0.33700
N618        N  0.94385137  0.37749373  0.20794889    -0.28000
C619        C  0.96366938  0.38611561  0.23454774    -0.04100
C620        C  0.98718569  0.36008765  0.24014271     0.08200
C621        C  0.98063466  0.33609678  0.21542333     0.02000
H622        H  0.96123149  0.40964963  0.24866885     0.09600
H623        H  0.99479326  0.31274342  0.21084497     0.08700
N624        N  0.86558071  0.43041759  0.15810388    -0.35100
N625        N  0.85867390  0.42254123  0.12622763    -0.27300
C626        C  0.83384848  0.44350713  0.11430537    -0.02600
C627        C  0.82424172  0.46519618  0.14004275     0.06000
C628        C  0.84470193  0.45609342  0.16753835     0.04100
H629        H  0.82271221  0.44217546  0.08914035     0.09200
H630        H  0.84463263  0.46748125  0.19241017     0.08100
C631        C  0.01548449  0.35974025  0.26467134     0.81200
N632        N  0.03989137  0.38437786  0.26277547    -0.77100
C633        C  0.06645015  0.38389614  0.28511325     0.83600
N634        N  0.06805786  0.35912917  0.30951782    -0.77100
C635        C  0.04389978  0.33452319  0.31174292     0.83700
N636        N  0.01765050  0.33460564  0.28897625    -0.78800
C637        C  0.05907148  0.22279912  0.41708790     0.87500
C638        C  0.05963384  0.19284146  0.39184230    -0.52800
C639        C  0.03291992  0.19324677  0.36926769     0.10400
C640        C  0.00806424  0.22361706  0.37402457     0.21300
C641        C  0.05741435  0.25511823  0.39442123    -0.53500
C642        C  0.03091667  0.25561672  0.37141228     0.10500
C643        C  0.02416524  0.22111730  0.43371535    -0.53000
C644        C  0.99748889  0.22175147  0.41148675     0.11100
H645        H  0.07962180  0.17364017  0.39079179     0.15600
H646        H  0.98629089  0.22413501  0.35588032     0.01300
H647        H  0.07604118  0.27540541  0.39681387     0.15900
H648        H  0.02078502  0.21935958  0.46100663     0.15700
C649        C  0.29986584  0.47889554  0.86852649     0.81200
N650        N  0.26966035  0.49555653  0.87109211    -0.77100
C651        C  0.24744967  0.48749644  0.89580782     0.83600
N652        N  0.25513384  0.46164149  0.91801264    -0.77100
C653        C  0.28508984  0.44392331  0.91567515     0.83700
N654        N  0.30765165  0.45272167  0.89081080    -0.78800
N655        N  0.13042462  0.63741038  0.93553408    -0.26300
N656        N  0.11294164  0.65575064  0.91282874    -0.34200
C657        C  0.10497649  0.68640127  0.92622047     0.02000
C658        C  0.11742176  0.68706676  0.95911768     0.08100
C659        C  0.13378341  0.65585216  0.96399233    -0.05000
H660        H  0.09180696  0.70693272  0.91274246     0.08700
H661        H  0.14846549  0.64777422  0.98607964     0.09900
Cu662      Cu  0.10138357  0.63860719  0.86444248     0.44200
Cu663      Cu  0.15219882  0.58962045  0.92596362     0.42000
Cu664      Cu  0.12984550  0.55238585  0.84543487     0.43900
N665        N  0.08424142  0.61121816  0.82289190    -0.33700
N666        N  0.09302324  0.57901385  0.81691336    -0.28000
C667        C  0.07407451  0.56742891  0.79080867    -0.04100
C668        C  0.05300940  0.59388390  0.77945343     0.08200
C669        C  0.06018132  0.62122218  0.80032232     0.02000
H670        H  0.07521738  0.54156858  0.78111019     0.09600
H671        H  0.04732796  0.64587590  0.80048598     0.08700
N672        N  0.16903062  0.53361226  0.87674900    -0.35100
N673        N  0.17676582  0.54664318  0.90666289    -0.27300
C674        C  0.20435283  0.53011654  0.91949500    -0.02600
C675        C  0.21446969  0.50553054  0.89654871     0.06000
C676        C  0.19175713  0.50883282  0.86961539     0.04100
H677        H  0.21736216  0.53700305  0.94273515     0.09200
H678        H  0.19250819  0.49508414  0.84594972     0.08100
N679        N  0.40408417  0.13329494  0.92713453    -0.26300
N680        N  0.37368936  0.12460439  0.93833992    -0.34200
C681        C  0.36536156  0.14543999  0.96397471     0.02000
C682        C  0.39202736  0.16777137  0.96956740     0.08100
C683        C  0.41613162  0.15947843  0.94573679    -0.05000
H684        H  0.34134946  0.14486074  0.97711371     0.08700
H685        H  0.43978986  0.17266812  0.94103932     0.09900
Cu686      Cu  0.34392098  0.08621433  0.91689651     0.44200
Cu687      Cu  0.42555225  0.11236140  0.88413124     0.42000
Cu688      Cu  0.37016183  0.05676075  0.83444781     0.43900
N689        N  0.31697518  0.05005544  0.88896258    -0.33700
N690        N  0.32578869  0.04015120  0.85827827    -0.28000
C691        C  0.30261312  0.01751289  0.84679086    -0.04100
C692        C  0.27835307  0.01272563  0.87157832     0.08200
C693        C  0.28844459  0.03345812  0.89805776     0.02000
H694        H  0.30391293  0.00468543  0.82265602     0.09600
H695        H  0.27583359  0.03644191  0.92209628     0.08700
N696        N  0.41627515  0.07650124  0.81701281    -0.35100
N697        N  0.43638899  0.09639343  0.83532420    -0.27300
C698        C  0.46349247  0.10540881  0.81670671    -0.02600
C699        C  0.46038445  0.09044646  0.78525794     0.06000
C700        C  0.43023485  0.07230100  0.78623937     0.04100
H701        H  0.48371366  0.12203445  0.82528669     0.09200
H702        H  0.41906595  0.05745539  0.76596328     0.08100
C703        C  0.41056254  0.22574114  0.04119130     0.81200
N704        N  0.41239437  0.19904973  0.01931445    -0.77100
C705        C  0.39177629  0.19778745  0.99173138     0.83600
N706        N  0.36871231  0.22309787  0.98621294    -0.77100
C707        C  0.36648284  0.25036035  0.00725254     0.83700
N708        N  0.38735176  0.25170240  0.03531356    -0.78800
C709        C  0.23425349  0.32092255  0.00518040     0.87500
C710        C  0.23528741  0.34698757  0.03416752    -0.52800
C711        C  0.26338632  0.36786303  0.03413191     0.10400
C712        C  0.28838519  0.35999959  0.00522251     0.21300
C713        C  0.23824712  0.34316366  0.97290831    -0.53500
C714        C  0.26594090  0.36423683  0.97286425     0.10500
C715        C  0.26760530  0.30109235  0.00873794    -0.53000
C716        C  0.29624159  0.32091203  0.00891453     0.11100
H717        H  0.21488759  0.34891772  0.05233299     0.15600
H718        H  0.31134234  0.37646532  0.00522169     0.01300
H719        H  0.21903801  0.34556081  0.95310055     0.15900
H720        H  0.26825484  0.27336418  0.01219549     0.15700
C721        C  0.29165431  0.82999270  0.99271585     0.87500
C722        C  0.28749285  0.85144283  0.96002677    -0.52800
C723        C  0.25897666  0.87173214  0.95920064     0.10400
C724        C  0.23696080  0.86849746  0.99137961     0.21300
C725        C  0.29030014  0.85650394  0.02128219    -0.53500
C726        C  0.26169584  0.87692482  0.02074103     0.10500
C727        C  0.25844683  0.80993935  0.99600873    -0.53000
C728        C  0.22964478  0.82975617  0.99551119     0.11100
H729        H  0.30604723  0.85217746  0.93989283     0.15600
H730        H  0.21375264  0.88486213  0.99084542     0.01300
H731        H  0.31045870  0.85831774  0.04007748     0.15900
H732        H  0.25807328  0.78226976  0.99994256     0.15700
C733        C  0.19959959  0.96611937  0.84699771     0.81200
N734        N  0.22564411  0.98919296  0.84695010    -0.77100
C735        C  0.25008759  0.98802738  0.87153760     0.83600
N736        N  0.24893646  0.96321505  0.89586460    -0.77100
C737        C  0.22364647  0.93952272  0.89594303     0.83700
N738        N  0.19882889  0.94113354  0.87155658    -0.78800
C739        C  0.28381214  0.96844773  0.14665053     0.81200
N740        N  0.28998622  0.94453422  0.12263435    -0.77100
C741        C  0.26814715  0.94064536  0.09594955     0.83600
N742        N  0.24007634  0.96130161  0.09315240    -0.77100
C743        C  0.23370156  0.98508087  0.11738930     0.83700
N744        N  0.25556523  0.98840761  0.14395313    -0.78800
C745        C  0.99149230  0.25162522  0.85082952     0.87500
C746        C  0.96232645  0.24530848  0.87558285    -0.52800
C747        C  0.96702342  0.21747086  0.89667588     0.10400
C748        C  0.00041960  0.19766508  0.89002601     0.21300
C749        C  0.02342201  0.25347774  0.87363921    -0.53500
C750        C  0.02809242  0.22530515  0.89461910     0.10500
C751        C  0.99509837  0.21800382  0.83149635    -0.53000
C752        C  0.00001774  0.18948413  0.85164011     0.11100
H753        H  0.94055770  0.26243571  0.87736918     0.15600
H754        H  0.00409177  0.17474351  0.90675350     0.01300
H755        H  0.03953983  0.27598102  0.87391074     0.15900
H756        H  0.99486489  0.21716135  0.80398707     0.15700
C757        C  0.90379267  0.25964940  0.03071047     0.81200
N758        N  0.88111631  0.23441872  0.03686374    -0.77100
C759        C  0.87538533  0.20941274  0.01385139     0.83600
N760        N  0.89298915  0.20948795  0.98416382    -0.77100
C761        C  0.91603531  0.23489538  0.97790330     0.83700
N762        N  0.92071709  0.26022354  0.00097144    -0.78800
C763        C  0.15223379  0.26732643  0.98325258     0.81200
N764        N  0.12913949  0.26739429  0.95740053    -0.77100
C765        C  0.10338718  0.24429840  0.95658887     0.83600
N766        N  0.10074009  0.22067291  0.98218467    -0.77100
C767        C  0.12370321  0.22037948  0.00832043     0.83700
N768        N  0.14954974  0.24357009  0.00868245    -0.78800
C769        C  0.91921017  0.00791039  0.24548101     0.87500
C770        C  0.89417793  0.00922564  0.21542879    -0.52800
C771        C  0.87384900  0.98078248  0.21284967     0.10400
C772        C  0.88109342  0.95335932  0.24072521     0.21300
C773        C  0.89661432  0.00132361  0.27673036    -0.53500
C774        C  0.87656309  0.97278446  0.27410543     0.10500
C775        C  0.93915835  0.97442325  0.24094111    -0.53000
C776        C  0.91945754  0.94582098  0.23846003     0.11100
H777        H  0.89253313  0.03136204  0.19855876     0.15600
H778        H  0.86493456  0.93011067  0.23880193     0.01300
H779        H  0.89593267  0.01738625  0.29892849     0.15900
H780        H  0.96678004  0.97331755  0.24094627     0.15700
C781        C  0.01311917  0.82292085  0.21663929     0.81200
N782        N  0.98999660  0.84770364  0.20752156    -0.77100
C783        C  0.98472745  0.87491821  0.22841208     0.83600
N784        N  0.00339134  0.87786891  0.25743012    -0.77100
C785        C  0.02636011  0.85333165  0.26651528     0.83700
N786        N  0.03091226  0.82588264  0.24623284    -0.78800
C787        C  0.97350128  0.08769330  0.27127557     0.81200
N788        N  0.97478508  0.11092458  0.29671381    -0.77100
C789        C  0.00026618  0.13435873  0.29820069     0.83600
N790        N  0.02431683  0.13494589  0.27358080    -0.77100
C791        C  0.02304509  0.11192915  0.24791070     0.83700
N792        N  0.99788070  0.08818045  0.24708275    -0.78800
N793        N  0.11132918  0.16421060  0.08193955    -0.26300
N794        N  0.13318409  0.14586014  0.06425409    -0.34200
C795        C  0.14048733  0.16299781  0.03541761     0.02000
C796        C  0.12226245  0.19340287  0.03469797     0.08100
C797        C  0.10403424  0.19346664  0.06455389    -0.05000
H798        H  0.15795931  0.15400494  0.01638607     0.08700
H799        H  0.08705141  0.21338431  0.07315228     0.09900
Cu800      Cu  0.15301456  0.09843529  0.07975729     0.44200
Cu801      Cu  0.09292418  0.14862838  0.12924999     0.42000
Cu802      Cu  0.12457767  0.06591243  0.16036482     0.43900
N803        N  0.17209578  0.05346652  0.10203298    -0.33700
N804        N  0.16229222  0.04218022  0.13212331    -0.28000
C805        C  0.18145626  0.01476011  0.14115671    -0.04100
C806        C  0.20382982  0.00790915  0.11519924     0.08200
C807        C  0.19735082  0.03309929  0.09087942     0.02000
H808        H  0.17982651  0.00130469  0.16522915     0.09600
H809        H  0.21127793  0.03751484  0.06771389     0.08700
N810        N  0.08759694  0.09464000  0.18487361    -0.35100
N811        N  0.07681663  0.12525727  0.17429568    -0.27300
C812        C  0.05323526  0.13683754  0.19602442    -0.02600
C813        C  0.04883914  0.11220903  0.22119325     0.06000
C814        C  0.07071795  0.08570530  0.21314904     0.04100
H815        H  0.03942494  0.16078866  0.19302061     0.09200
H816        H  0.07405154  0.06162794  0.22678829     0.08100
C817        C  0.47993641  0.88245203  0.27496622     0.81200
N818        N  0.50232922  0.88677696  0.24906676    -0.77100
C819        C  0.52780562  0.86386540  0.24442252     0.83600
N820        N  0.53100070  0.83662590  0.26561513    -0.77100
C821        C  0.50992112  0.83211146  0.29212234     0.83700
N822        N  0.48378287  0.85487202  0.29676105    -0.78800
N823        N  0.59246082  0.87956418  0.18134927    -0.26300
N824        N  0.58419142  0.84742020  0.17473030    -0.34200
C825        C  0.55852055  0.83797945  0.19489263     0.02000
C826        C  0.54976846  0.86561603  0.21472018     0.08100
C827        C  0.57182020  0.89161224  0.20561980    -0.05000
H828        H  0.54766995  0.81251153  0.19578222     0.08700
H829        H  0.57417141  0.91654816  0.21723221     0.09900
Cu830      Cu  0.60926942  0.81665005  0.14032164     0.44200
Cu831      Cu  0.63452412  0.90319686  0.16029291     0.42000
Cu832      Cu  0.69164574  0.84486709  0.11495087     0.43900
N833        N  0.63800704  0.79125489  0.10452357    -0.33700
N834        N  0.66888658  0.80095209  0.09579697    -0.28000
C835        C  0.67986394  0.78071769  0.07062982    -0.04100
C836        C  0.65462053  0.75723523  0.06317648     0.08200
C837        C  0.62833184  0.76496702  0.08487037     0.02000
H838        H  0.70339896  0.78446190  0.05709734     0.09600
H839        H  0.60343683  0.75330378  0.08532880     0.08700
N840        N  0.70383490  0.89481531  0.12863797    -0.35100
N841        N  0.68266444  0.91627854  0.14358807    -0.27300
C842        C  0.69767836  0.94711811  0.14640546    -0.02600
C843        C  0.72989296  0.94473568  0.13308902     0.06000
C844        C  0.73303278  0.91136626  0.12201888     0.04100
H845        H  0.68602568  0.96954796  0.15742648     0.09200
H846        H  0.75448466  0.90024921  0.10905593     0.08100
N847        N  0.17044230  0.92450895  0.37708880    -0.26300
N848        N  0.18169705  0.91477217  0.40746697    -0.34200
C849        C  0.21031351  0.93229741  0.41477140     0.02000
C850        C  0.21750293  0.95380358  0.38758697     0.08100
C851        C  0.19193911  0.94787125  0.36404410    -0.05000
H852        H  0.22580498  0.92821963  0.43734491     0.08700
H853        H  0.18958650  0.95911347  0.33892264     0.09900
Cu854      Cu  0.15959278  0.87507702  0.43555746     0.44200
Cu855      Cu  0.12758713  0.90411852  0.35344687     0.42000
Cu856      Cu  0.09099552  0.82904553  0.39247743     0.43900
N857        N  0.13509682  0.83206287  0.45578058    -0.33700
N858        N  0.10993683  0.81579446  0.44033315    -0.28000
C859        C  0.10029949  0.78893984  0.45976787    -0.04100
C860        C  0.12032483  0.78821245  0.48873647     0.08200
C861        C  0.14237834  0.81559806  0.48523514     0.02000
H862        H  0.08097207  0.77057413  0.45271955     0.09600
H863        H  0.16259403  0.82268185  0.50253792     0.08700
N864        N  0.07501214  0.84847402  0.34557862    -0.35100
N865        N  0.08744255  0.87694998  0.33201743    -0.27300
C866        C  0.07124403  0.88350501  0.30237826    -0.02600
C867        C  0.04791689  0.85765138  0.29681686     0.06000
C868        C  0.05113119  0.83570118  0.32452243     0.04100
H869        H  0.07682127  0.90490207  0.28558127     0.09200
H870        H  0.03696862  0.81240022  0.32919478     0.08100
C871        C  0.29810028  0.98034271  0.34793595     0.81200
N872        N  0.26819656  0.96433436  0.35411710    -0.77100
C873        C  0.24937252  0.97240796  0.38143416     0.83600
N874        N  0.26028963  0.99733979  0.40267005    -0.77100
C875        C  0.28984749  0.01444207  0.39644520     0.83700
N876        N  0.30890772  0.00566963  0.36905609    -0.78800
C877        C  0.35805945  0.96222466  0.21217187     0.87500
C878        C  0.37670998  0.99635725  0.20714116    -0.52800
C879        C  0.39799531  0.00487704  0.23321680     0.10400
C880        C  0.39832354  0.97796696  0.26269006     0.21300
C881        C  0.38638661  0.93575635  0.21892818    -0.53500
C882        C  0.40752452  0.94364748  0.24545550     0.10500
C883        C  0.33983109  0.96571968  0.24598540    -0.53000
C884        C  0.36052557  0.97430144  0.27269382     0.11100
H885        H  0.37356309  0.01231304  0.18450616     0.15600
H886        H  0.41519770  0.98423106  0.28441216     0.01300
H887        H  0.39061990  0.91372201  0.20287009     0.15900
H888        H  0.31243942  0.96339738  0.24778032     0.15700
N889        N  0.39028016  0.33472881  0.44286355    -0.26300
N890        N  0.42179795  0.32917614  0.43275434    -0.34200
C891        C  0.43380861  0.30007763  0.44739164     0.02000
C892        C  0.40855127  0.28627137  0.46731317     0.08100
C893        C  0.38121365  0.30868566  0.46373205    -0.05000
H894        H  0.45850571  0.28895655  0.44258094     0.08700
H895        H  0.35651575  0.30617671  0.47537623     0.09900
Cu896      Cu  0.44586711  0.35843297  0.39601672     0.44200
Cu897      Cu  0.36115359  0.37743837  0.42678823     0.42000
Cu898      Cu  0.39249321  0.41909561  0.35028194     0.43900
N899        N  0.45890112  0.38001158  0.34969166    -0.33700
N900        N  0.43898415  0.40138409  0.33222326    -0.28000
C901        C  0.45306084  0.40745770  0.30173599    -0.04100
C902        C  0.48350161  0.38954535  0.30031127     0.08200
C903        C  0.48613346  0.37209311  0.33093096     0.02000
H904        H  0.44140568  0.42278792  0.28163592     0.09600
H905        H  0.50544876  0.35349316  0.33829198     0.08700
N906        N  0.34905924  0.43518959  0.37567585    -0.35100
N907        N  0.33808500  0.42096883  0.40418004    -0.27300
C908        C  0.31014911  0.43824117  0.41426293    -0.02600
C909        C  0.30314614  0.46427468  0.39083699     0.06000
C910        C  0.32811076  0.46129304  0.36661233     0.04100
H911        H  0.29545155  0.43171894  0.43643193     0.09200
H912        H  0.33094780  0.47709330  0.34406370     0.08100
N913        N  0.66732834  0.55813955  0.60916503    -0.26300
N914        N  0.65923620  0.54876246  0.64034706    -0.34200
C915        C  0.67975128  0.52281132  0.65056680     0.02000
C916        C  0.70127915  0.51502201  0.62422961     0.08100
C917        C  0.69271160  0.53783125  0.59832374    -0.05000
H918        H  0.67902690  0.51052527  0.67530421     0.08700
H919        H  0.70505632  0.54053651  0.57404291     0.09900
Cu920      Cu  0.62056084  0.57206716  0.66705827     0.44200
Cu921      Cu  0.64535253  0.60055737  0.58505752     0.42000
Cu922      Cu  0.58213484  0.65030378  0.63286895     0.43900
N923        N  0.57964435  0.59670893  0.68899821    -0.33700
N924        N  0.56584553  0.62577035  0.67760115    -0.28000
C925        C  0.54059076  0.63484952  0.69875071    -0.04100
C926        C  0.53820750  0.60988080  0.72404277     0.08200
C927        C  0.56327609  0.58621287  0.71698496     0.02000
H928        H  0.52479598  0.65752873  0.69563469     0.09600
H929        H  0.56956920  0.56322685  0.73148771     0.08700
N930        N  0.60357087  0.66644307  0.58673589    -0.35100
N931        N  0.62617696  0.64818593  0.56984848    -0.27300
C932        C  0.63574137  0.66600654  0.54213688    -0.02600
C933        C  0.61823680  0.69678669  0.54120320     0.06000
C934        C  0.59811235  0.69638262  0.56983193     0.04100
H935        H  0.65450413  0.65736024  0.52423370     0.09200
H936        H  0.58125665  0.71661504  0.57810447     0.08100
N937        N  0.83454440  0.92929462  0.86845021    -0.26300
N938        N  0.82228895  0.91674908  0.89715621    -0.34200
C939        C  0.79647518  0.93714503  0.90708839     0.02000
C940        C  0.79235042  0.96325705  0.88321059     0.08100
C941        C  0.81666014  0.95735995  0.85907184    -0.05000
H942        H  0.78142553  0.93287220  0.92956127     0.08700
H943        H  0.82128083  0.97256547  0.83645533     0.09900
Cu944      Cu  0.84082247  0.87159689  0.92033879     0.44200
Cu945      Cu  0.87531797  0.90908843  0.84271231     0.42000
Cu946      Cu  0.90842565  0.82909529  0.87336354     0.43900
N947        N  0.86424437  0.82544814  0.93582866    -0.33700
N948        N  0.88886318  0.81046483  0.91865975    -0.28000
C949        C  0.89932124  0.78203120  0.93556241    -0.04100
C950        C  0.88020718  0.77861666  0.96452142     0.08200
C951        C  0.85824731  0.80656279  0.96404926     0.02000
H952        H  0.91954318  0.76518072  0.92742684     0.09600
H953        H  0.83972954  0.81301056  0.98306832     0.08700
N954        N  0.92772267  0.85458706  0.83128957    -0.35100
N955        N  0.91624732  0.88490100  0.82079528    -0.27300
C956        C  0.93521027  0.89605995  0.79473848    -0.02600
C957        C  0.95931378  0.87119752  0.78819806     0.06000
C958        C  0.95389736  0.84522182  0.81170134     0.04100
H959        H  0.93156710  0.92031918  0.78146534     0.09200
H960        H  0.96857864  0.82180353  0.81503912     0.08100
C961        C  0.31672468  0.97015238  0.31719845    -0.15500
C962        C  0.34688525  0.98266173  0.30693535    -0.30600
H963        H  0.30399194  0.95114552  0.30178102     0.13600
H964        H  0.36112638  0.99998559  0.32304358     0.14100
C965        C  0.44933960  0.90526954  0.27640401    -0.15500
C966        C  0.44059117  0.92545802  0.24954532    -0.30600
H967        H  0.43244963  0.90326736  0.29791610     0.13600
H968        H  0.45638683  0.92540306  0.22712415     0.14100
C969        C  0.94312041  0.03851384  0.24584751    -0.15500
C970        C  0.94664596  0.06112021  0.27126819    -0.30600
H971        H  0.95939955  0.04114284  0.22384301     0.13600
H972        H  0.93037749  0.05999982  0.29321166     0.14100
C973        C  0.93456075  0.91084845  0.23834536    -0.15500
C974        C  0.96138855  0.90317652  0.21889516    -0.30600
H975        H  0.92580319  0.89241231  0.25717460     0.13600
H976        H  0.96952133  0.92112355  0.19931716     0.14100
C977        C  0.07888785  0.24581669  0.92767631    -0.15500
C978        C  0.05418486  0.22249278  0.92247612    -0.30600
H979        H  0.08174588  0.26719431  0.91010219     0.13600
H980        H  0.05222313  0.20074359  0.93983915     0.14100
C981        C  0.94539005  0.21118323  0.92699770    -0.15500
C982        C  0.93412838  0.23787876  0.94533553    -0.30600
H983        H  0.94185307  0.18504795  0.93617819     0.13600
H984        H  0.94124403  0.26374084  0.93774207     0.14100
C985        C  0.30772212  0.97431425  0.17511075    -0.15500
C986        C  0.33442725  0.95378304  0.18281233    -0.30600
H987        H  0.30306432  0.99671042  0.19066797     0.13600
H988        H  0.33916400  0.93094292  0.16803249     0.14100
C989        C  0.25429562  0.90485334  0.04542722    -0.15500
C990        C  0.27571537  0.91376739  0.07074475    -0.30600
H991        H  0.23018191  0.91831261  0.04259783     0.13600
H992        H  0.29983046  0.90054305  0.07404998     0.14100
C993        C  0.25458159  0.89846131  0.93235776    -0.15500
C994        C  0.22449659  0.91134069  0.92158700    -0.30600
H995        H  0.27769175  0.90768215  0.92043169     0.13600
H996        H  0.20083226  0.90056399  0.93072382     0.14100
C997        C  0.20360067  0.29683287  0.00707370    -0.15500
C998        C  0.18059662  0.29228071  0.98187502    -0.30600
H999        H  0.20110131  0.28169181  0.03025645     0.13600
H1000       H  0.18224338  0.30686299  0.95839494     0.14100
C1001       C  0.33724372  0.27393995  0.00071671    -0.15500
C1002       C  0.33075115  0.30488518  0.01438427    -0.30600
H1003       H  0.31857357  0.26400317  0.98282123     0.13600
H1004       H  0.34952579  0.31745545  0.03019849     0.14100
C1005       C  0.29140314  0.41357325  0.93857135    -0.15500
C1006       C  0.26482081  0.39506893  0.94986169    -0.30600
H1007       H  0.31726600  0.40557274  0.94468721     0.13600
H1008       H  0.23957546  0.40248525  0.94071696     0.14100
C1009       C  0.03109727  0.16892425  0.34054374    -0.15500
C1010       C  0.00151208  0.15876116  0.32666932    -0.30600
H1011       H  0.05478346  0.15823839  0.33130557     0.13600
H1012       H  0.97766758  0.16664465  0.33785796     0.14100
C1013       C  0.02516244  0.28286917  0.34488448    -0.15500
C1014       C  0.04770049  0.30809056  0.33876602    -0.30600
H1015       H  0.00237320  0.28125079  0.32927315     0.13600
H1016       H  0.07076044  0.30973135  0.35382785     0.14100
C1017       C  0.94742314  0.24410807  0.44100957    -0.15500
C1018       C  0.96225513  0.21856595  0.42370188    -0.30600
H1019       H  0.95839747  0.26971910  0.44044041     0.13600
H1020       H  0.95101432  0.19314566  0.42354487     0.14100
C1021       C  0.44441012  0.24843804  0.09073541    -0.15500
C1022       C  0.43117002  0.22243357  0.07282597    -0.30600
H1023       H  0.44048784  0.27478127  0.08210157     0.13600
H1024       H  0.43860509  0.19639195  0.07988326     0.14100
C1025       C  0.55686393  0.23786430  0.09148267    -0.15500
C1026       C  0.58353721  0.21629171  0.08857644    -0.30600
H1027       H  0.55397372  0.25916514  0.07365165     0.13600
H1028       H  0.58736459  0.19549096  0.10667198     0.14100
C1029       C  0.49914011  0.17915256  0.19024664    -0.15500
C1030       C  0.47543296  0.15474701  0.19577367    -0.30600
H1031       H  0.52219643  0.17843788  0.20570009     0.13600
H1032       H  0.45248748  0.15387225  0.18035731     0.14100
C1033       C  0.44494064  0.04355796  0.25164139    -0.15500
C1034       C  0.41831858  0.03708896  0.23121264    -0.30600
H1035       H  0.45236629  0.02493051  0.27102822     0.13600
H1036       H  0.41182303  0.05552861  0.21121474     0.14100
C1037       C  0.58395805  0.54790383  0.24625796    -0.15500
C1038       C  0.60867148  0.53803284  0.26808646    -0.30600
H1039       H  0.58322897  0.53672266  0.22112328     0.13600
H1040       H  0.60837674  0.54645478  0.29425558     0.14100
C1041       C  0.50129667  0.31610186  0.20387761    -0.15500
C1042       C  0.51321920  0.30578580  0.17379764    -0.30600
H1043       H  0.48270170  0.30010555  0.21668388     0.13600
H1044       H  0.52979085  0.32231159  0.15909732     0.14100
C1045       C  0.58445966  0.40842152  0.22980712    -0.15500
C1046       C  0.59855420  0.42897069  0.25343346    -0.30600
H1047       H  0.59646111  0.40514655  0.20542635     0.13600
H1048       H  0.58617172  0.43113363  0.27781235     0.14100
C1049       C  0.24533223  0.40932905  0.07897732    -0.15500
C1050       C  0.26864396  0.39780051  0.05687622    -0.30600
H1051       H  0.22159546  0.39580359  0.08240314     0.13600
H1052       H  0.29222524  0.41182657  0.05392560     0.14100
C1053       C  0.18269830  0.46986610  0.18152036    -0.15500
C1054       C  0.21001652  0.48728544  0.17064253    -0.30600
H1055       H  0.17115690  0.44984674  0.16640503     0.13600
H1056       H  0.21929534  0.50841721  0.18595141     0.14100
C1057       C  0.09885845  0.43174934  0.25789102    -0.15500
C1058       C  0.09414565  0.40933102  0.28371669    -0.30600
H1059       H  0.08121515  0.43193119  0.23653169     0.13600
H1060       H  0.11187876  0.40824353  0.30481650     0.14100
C1061       C  0.09424675  0.56601636  0.25719302    -0.15500
C1062       C  0.10607638  0.54392354  0.23409221    -0.30600
H1063       H  0.10467964  0.56504453  0.28279516     0.13600
H1064       H  0.09313460  0.54203905  0.20969273     0.14100
C1065       C  0.24592426  0.56845929  0.56847610    -0.15500
C1066       C  0.27513505  0.55593089  0.58147505    -0.30600
H1067       H  0.22190189  0.55852199  0.57774720     0.13600
H1068       H  0.29910340  0.56777948  0.57464804     0.14100
C1069       C  0.19578871  0.50131744  0.33578952    -0.15500
C1070       C  0.20371164  0.49168928  0.30434216    -0.30600
H1071       H  0.16982027  0.50885640  0.34132539     0.13600
H1072       H  0.23010990  0.48594294  0.29863377     0.14100
C1073       C  0.23465675  0.56057195  0.43640134    -0.15500
C1074       C  0.25842807  0.57298884  0.45762938    -0.30600
H1075       H  0.20925834  0.57152274  0.43624130     0.13600
H1076       H  0.28362574  0.56143210  0.45833986     0.14100
C1077       C  0.08703913  0.22504591  0.44387898    -0.15500
C1078       C  0.11229640  0.20204826  0.45007739    -0.30600
H1079       H  0.08535401  0.24755903  0.45989273     0.13600
H1080       H  0.11506092  0.17937886  0.43465010     0.14100
C1081       C  0.22802851  0.14338672  0.49669503    -0.15500
C1082       C  0.22237595  0.17525219  0.50833041    -0.30600
H1083       H  0.20737336  0.12912757  0.48506118     0.13600
H1084       H  0.24240140  0.18799839  0.52249696     0.14100
C1085       C  0.30122977  0.04248564  0.41926344    -0.15500
C1086       C  0.28133058  0.05409176  0.44440585    -0.30600
H1087       H  0.32624084  0.05335415  0.41533857     0.13600
H1088       H  0.25636502  0.04282232  0.44757104     0.14100
C1089       C  0.25542642  0.03925572  0.56705749    -0.15500
C1090       C  0.28560419  0.05094880  0.55625248    -0.30600
H1091       H  0.23195920  0.05198164  0.55919664     0.13600
H1092       H  0.30873006  0.03953768  0.56688911     0.14100
C1093       C  0.57883453  0.22982269  0.57881779    -0.15500
C1094       C  0.60336122  0.25239133  0.57004049    -0.30600
H1095       H  0.57561773  0.20668250  0.56399542     0.13600
H1096       H  0.60694753  0.27576320  0.58430415     0.14100
C1097       C  0.36334760  0.17050961  0.48495384    -0.15500
C1098       C  0.35672727  0.14323675  0.50504812    -0.30600
H1099       H  0.34646454  0.17600999  0.46354677     0.13600
H1100       H  0.37316196  0.13834347  0.52693243     0.14100
C1101       C  0.45778733  0.21299760  0.55785945    -0.15500
C1102       C  0.46761721  0.24022559  0.57630625    -0.30600
H1103       H  0.46622991  0.18730440  0.56494745     0.13600
H1104       H  0.45652406  0.26523428  0.57020151     0.14100
C1105       C  0.53821273  0.64205241  0.31568922    -0.15500
C1106       C  0.51280583  0.66363938  0.32404486    -0.30600
H1107       H  0.56237085  0.64244534  0.32904527     0.13600
H1108       H  0.48883465  0.66209404  0.31018212     0.14100
C1109       C  0.50204205  0.79030406  0.34156512    -0.15500
C1110       C  0.51438137  0.79935316  0.31106359    -0.30600
H1111       H  0.48837973  0.80872879  0.35682457     0.13600
H1112       H  0.53061443  0.78096759  0.29834385     0.14100
C1113       C  0.43705973  0.69500501  0.43414048    -0.15500
C1114       C  0.46136010  0.71844607  0.42745079    -0.30600
H1115       H  0.43317905  0.67328710  0.41769411     0.13600
H1116       H  0.46440928  0.74027716  0.44411633     0.14100
C1117       C  0.33769930  0.65311171  0.49676906    -0.15500
C1118       C  0.31422013  0.65728519  0.52091566    -0.30600
H1119       H  0.33355888  0.63436963  0.47698517     0.13600
H1120       H  0.31740999  0.67745756  0.53947413     0.14100
C1121       C  0.58424605  0.75415783  0.43477110    -0.15500
C1122       C  0.57168853  0.72490006  0.42177451    -0.30600
H1123       H  0.57816240  0.77881620  0.42295505     0.13600
H1124       H  0.58065028  0.70045165  0.43220725     0.14100
C1125       C  0.83159273  0.98596358  0.31516266    -0.15500
C1126       C  0.85118008  0.96240715  0.30001184    -0.30600
H1127       H  0.83422608  0.01283406  0.30789945     0.13600
H1128       H  0.84645485  0.93523028  0.30426491     0.14100
C1129       C  0.69478803  0.82068529  0.48211382    -0.15500
C1130       C  0.68681228  0.79208139  0.49992265    -0.30600
H1131       H  0.67655176  0.83180414  0.46423926     0.13600
H1132       H  0.70441805  0.78307497  0.51952489     0.14100
C1133       C  0.73620527  0.91899109  0.53863414    -0.15500
C1134       C  0.71863254  0.91698538  0.56762469    -0.30600
H1135       H  0.74717074  0.94329037  0.53059543     0.13600
H1136       H  0.70719241  0.89281298  0.57527581     0.14100
C1137       C  0.75965476  0.90946082  0.43231755    -0.15500
C1138       C  0.78432395  0.91627727  0.40959813    -0.30600
H1139       H  0.73624648  0.92433189  0.43104082     0.13600
H1140       H  0.80763143  0.90129526  0.40978609     0.14100
C1141       C  0.83396318  0.80160705  0.49443484    -0.15500
C1142       C  0.82018771  0.82583456  0.51404717    -0.30600
H1143       H  0.82214482  0.79664764  0.46994996     0.13600
H1144       H  0.83125645  0.83078618  0.53883311     0.14100
C1145       C  0.92667362  0.76447085  0.57460449    -0.15500
C1146       C  0.93753436  0.73634856  0.59190228    -0.30600
H1147       H  0.93280236  0.79003218  0.58347446     0.13600
H1148       H  0.92852659  0.71134626  0.58375117     0.14100
C1149       C  0.18029286  0.68817671  0.53733309    -0.15500
C1150       C  0.18872991  0.66942993  0.51022900    -0.30600
H1151       H  0.19371871  0.68402352  0.56124820     0.13600
H1152       H  0.17401441  0.67201155  0.48684233     0.14100
C1153       C  0.07650921  0.72741181  0.59032022    -0.15500
C1154       C  0.04879285  0.74723586  0.59514457    -0.30600
H1155       H  0.08164076  0.70567562  0.60679662     0.13600
H1156       H  0.04413164  0.76920427  0.57856240     0.14100
C1157       C  0.17289404  0.99208705  0.79570471    -0.15500
C1158       C  0.17385665  0.96644732  0.81891088    -0.30600
H1159       H  0.19018511  0.01358881  0.79867359     0.13600
H1160       H  0.15771478  0.94416823  0.81559037     0.14100
C1161       C  0.20332471  0.97568780  0.66339790    -0.15500
C1162       C  0.17856204  0.99861360  0.66962814    -0.30600
H1163       H  0.20596743  0.95344185  0.68011206     0.13600
H1164       H  0.17539161  0.02119375  0.65341990     0.14100
C1165       C  0.98856077  0.80419537  0.68030057    -0.15500
C1166       C  0.01647130  0.82126645  0.69072647    -0.30600
H1167       H  0.96362381  0.81236264  0.68872919     0.13600
H1168       H  0.04143073  0.81307270  0.68238939     0.14100
C1169       C  0.06271158  0.92561588  0.74643986    -0.15500
C1170       C  0.09149766  0.92615109  0.72844830    -0.30600
H1171       H  0.05709073  0.94659213  0.76339272     0.13600
H1172       H  0.09638047  0.90527306  0.71109535     0.14100
C1173       C  0.06564742  0.05173043  0.76532862    -0.15500
C1174       C  0.07802148  0.03964163  0.73593306    -0.30600
H1175       H  0.07921483  0.04713150  0.78903324     0.13600
H1176       H  0.06548511  0.04722874  0.71229972     0.14100
C1177       C  0.99008266  0.14561665  0.80805483    -0.15500
C1178       C  0.00626841  0.15470767  0.83686873    -0.30600
H1179       H  0.97009925  0.16256582  0.79832761     0.13600
H1180       H  0.02458951  0.13744203  0.84895579     0.14100
C1181       C  0.67003422  0.99998179  0.68966679    -0.15500
C1182       C  0.67005861  0.97414278  0.66734054    -0.30600
H1183       H  0.68761791  0.02113931  0.68639723     0.13600
H1184       H  0.65356964  0.95214871  0.67130693     0.14100
C1185       C  0.58452119  0.90301818  0.76799620    -0.15500
C1186       C  0.59201531  0.92797821  0.74524241    -0.30600
H1187       H  0.59757477  0.90178219  0.79234761     0.13600
H1188       H  0.57814602  0.92925543  0.72127297     0.14100
C1189       C  0.50096551  0.15814172  0.68907761    -0.15500
C1190       C  0.51895523  0.16550683  0.66095160    -0.30600
H1191       H  0.48451820  0.17793266  0.69927020     0.13600
H1192       H  0.53377194  0.14572208  0.64863089     0.14100
C1193       C  0.56331945  0.05340098  0.72684272    -0.15500
C1194       C  0.57646651  0.03967109  0.75560078    -0.30600
H1195       H  0.57599823  0.04961890  0.70279988     0.13600
H1196       H  0.56523321  0.04645029  0.77969508     0.14100
C1197       C  0.34605227  0.79900888  0.97281929    -0.15500
C1198       C  0.32217014  0.80597855  0.99637442    -0.30600
H1199       H  0.34615371  0.81225896  0.94860026     0.13600
H1200       H  0.32342382  0.79232270  0.02051774     0.14100
C1201       C  0.54249494  0.79694876  0.83613287    -0.15500
C1202       C  0.52330047  0.80010814  0.80776783    -0.30600
H1203       H  0.56307016  0.81502229  0.84032830     0.13600
H1204       H  0.50351263  0.78151175  0.80256445     0.14100
C1205       C  0.46423303  0.75245866  0.91719387    -0.15500
C1206       C  0.45458160  0.73684858  0.94624458    -0.30600
H1207       H  0.44732572  0.77028784  0.90397371     0.13600
H1208       H  0.47120019  0.71718269  0.95713053     0.14100
C1209       C  0.59764948  0.73746384  0.95476627    -0.15500
C1210       C  0.58788570  0.71766962  0.92865849    -0.30600
H1211       H  0.58461357  0.76168897  0.95872823     0.13600
H1212       H  0.60013809  0.69289096  0.92517946     0.14100
C1213       C  0.83670798  0.16013006  0.00065478    -0.15500
C1214       C  0.84626177  0.18653421  0.02011938    -0.30600
H1215       H  0.85300708  0.15068938  0.98073424     0.13600
H1216       H  0.83004110  0.19363960  0.04110047     0.14100
C1217       C  0.68885770  0.17422793  0.03909597    -0.15500
C1218       C  0.71097526  0.17145244  0.01345849    -0.30600
H1219       H  0.69076056  0.15756116  0.06113502     0.13600
H1220       H  0.70793309  0.18844279  0.99154876     0.14100
C1221       C  0.69650574  0.01955694  0.82498709    -0.15500
C1222       C  0.68031163  0.99103307  0.81506657    -0.30600
H1223       H  0.69058419  0.04410103  0.81291958     0.13600
H1224       H  0.68500456  0.96697144  0.82870947     0.14100
C1225       C  0.74749049  0.07358682  0.92412387    -0.15500
C1226       C  0.76908414  0.07549392  0.95072561    -0.30600
H1227       H  0.72865398  0.09355778  0.91962259     0.13600
H1228       H  0.78865648  0.05597163  0.95424517     0.14100
C1229       C  0.76100733  0.05270695  0.07759698    -0.15500
C1230       C  0.78444087  0.07262572  0.06256721    -0.30600
H1231       H  0.73431020  0.05619412  0.07090134     0.21600
H1232       H  0.81133082  0.06724966  0.06654580     0.14100
C1233       C  0.84533458  0.97708265  0.18794872    -0.15500
C1234       C  0.83764837  0.00056048  0.16354680    -0.30600
H1235       H  0.82921298  0.95470054  0.19099359     0.13600
H1236       H  0.85351087  0.02289358  0.15979420     0.14100
C1237       C  0.83877503  0.31021529  0.48860097    -0.15500
C1238       C  0.84871129  0.28334114  0.50813907    -0.30600
H1239       H  0.85071645  0.31462227  0.46424769     0.13600
H1240       H  0.83555915  0.27864134  0.53182716     0.14100
C1241       C  0.71485936  0.31215182  0.52000911    -0.15500
C1242       C  0.70676746  0.28229515  0.50491917    -0.30600
H1243       H  0.69700309  0.32449596  0.53675180     0.13600
H1244       H  0.72386367  0.27193414  0.48618270     0.14100
C1245       C  0.72524424  0.47667466  0.32270407    -0.15500
C1246       C  0.69343244  0.46603972  0.31575494    -0.30600
H1247       H  0.73850590  0.49205078  0.30394687     0.13600
H1248       H  0.67854977  0.45352353  0.33538485     0.14100
C1249       C  0.75932007  0.40885291  0.46025727    -0.15500
C1250       C  0.75372174  0.40880159  0.42654253    -0.30600
H1251       H  0.75986944  0.43305976  0.47371213     0.13600
H1252       H  0.75107730  0.38460013  0.41342188     0.14100
C1253       C  0.76519298  0.42351129  0.57027664    -0.15500
C1254       C  0.78595935  0.39601037  0.56900989    -0.30600
H1255       H  0.74835023  0.42902959  0.54899302     0.13600
H1256       H  0.80394995  0.39105464  0.58951871     0.14100
C1257       C  0.33482690  0.47799814  0.70442469    -0.15500
C1258       C  0.33156292  0.50132086  0.67904493    -0.30600
H1259       H  0.31696216  0.45678667  0.70550327     0.13600
H1260       H  0.34906469  0.52249309  0.67678782     0.14100
C1261       C  0.35129893  0.47483531  0.83042701    -0.15500
C1262       C  0.32066030  0.48783283  0.83854199    -0.30600
H1263       H  0.36542696  0.45880547  0.84844204     0.13600
H1264       H  0.30852097  0.50557827  0.82071292     0.14100
C1265       C  0.50508845  0.65186299  0.83573573    -0.15500
C1266       C  0.51088573  0.68562836  0.83096681    -0.30600
H1267       H  0.50497380  0.64122876  0.86134145     0.13600
H1268       H  0.50821378  0.69703687  0.80577873     0.14100
C1269       C  0.45015650  0.54880782  0.78890178    -0.15500
C1270       C  0.43662060  0.53445239  0.76103251    -0.30600
H1271       H  0.44036784  0.54204391  0.81374717     0.13600
H1272       H  0.44487484  0.54371695  0.73636633     0.14100
C1273       C  0.49824109  0.29777244  0.69863616    -0.15500
C1274       C  0.52493365  0.29249380  0.67824800    -0.30600
H1275       H  0.47521149  0.28287922  0.69483315     0.13600
H1276       H  0.54733126  0.30852404  0.68051346     0.14100
C1277       C  0.43722565  0.39345656  0.74785867    -0.15500
C1278       C  0.43319198  0.42076563  0.76811562    -0.30600
H1279       H  0.41919785  0.38861721  0.72760457     0.13600
H1280       H  0.45140995  0.42506622  0.78847891     0.14100
C1281       C  0.00716032  0.29202789  0.80329192    -0.15500
C1282       C  0.98557841  0.28303663  0.82811976    -0.30600
H1283       H  0.02977486  0.27640567  0.79943376     0.13600
H1284       H  0.96270723  0.29828533  0.83175009     0.14100
C1285       C  0.97952229  0.64814764  0.69189955    -0.15500
C1286       C  0.99890350  0.67666004  0.69067016    -0.30600
H1287       H  0.95737263  0.64560854  0.67565341     0.13600
H1288       H  0.02109141  0.67802921  0.70730347     0.14100
C1289       C  0.83245944  0.45988853  0.68739328    -0.15500
C1290       C  0.79914550  0.46811798  0.68476775    -0.30600
H1291       H  0.84581679  0.45060424  0.66527860     0.13600
H1292       H  0.78674677  0.48008492  0.70603155     0.14100
C1293       C  0.93166849  0.41923825  0.74481080    -0.15500
C1294       C  0.94103360  0.39501391  0.76792004    -0.30600
H1295       H  0.94553942  0.42127741  0.72125357     0.13600
H1296       H  0.92661798  0.39157542  0.79092639     0.14100
C1297       C  0.92366023  0.52973883  0.72203011    -0.15500
C1298       C  0.95388546  0.53248149  0.73790016    -0.30600
H1299       H  0.91562339  0.54828027  0.70277171     0.13600
H1300       H  0.96064113  0.51352460  0.75736477     0.14100
C1301       C  0.71908990  0.65178761  0.01066790    -0.15500
C1302       C  0.69320528  0.66228458  0.99016707    -0.30600
H1303       H  0.72356619  0.66496346  0.03438529     0.13600
H1304       H  0.68914031  0.65009750  0.96593109     0.14100
C1305       C  0.82281411  0.46581151  0.82576112    -0.15500
C1306       C  0.84508314  0.48791131  0.81221193    -0.30600
H1307       H  0.81857510  0.44133696  0.81338513     0.13600
H1308       H  0.84859538  0.51293575  0.82370484     0.14100
C1309       C  0.79139909  0.53796947  0.92339842    -0.15500
C1310       C  0.76647562  0.55788336  0.93584895    -0.30600
H1311       H  0.81752455  0.54166551  0.93173479     0.13600
H1312       H  0.74082149  0.55501863  0.92589313     0.14100
C1313       C  0.71936746  0.51264246  0.18714485    -0.15500
C1314       C  0.69649419  0.48705230  0.18979346    -0.30600
H1315       H  0.72002611  0.53277780  0.20594793     0.13600
H1316       H  0.69535891  0.46746848  0.17039811     0.14100
C1317       C  0.76749489  0.56410035  0.08379936    -0.15500
C1318       C  0.79107315  0.56583167  0.05943467    -0.30600
H1319       H  0.74441324  0.57944137  0.08116473     0.13600
H1320       H  0.81326804  0.54913855  0.06102880     0.14100
C1321       C  0.01813821  0.64944907  0.19484636    -0.15500
C1322       C  0.03901938  0.65961904  0.16979336    -0.30600
H1323       H  0.99343925  0.66204833  0.19644057     0.13600
H1324       H  0.06405617  0.64806517  0.16741373     0.14100
C1325       C  0.02004045  0.79229833  0.19577868    -0.15500
C1326       C  0.00575984  0.78459176  0.16544662    -0.30600
H1327       H  0.03877735  0.77483137  0.20681733     0.13600
H1328       H  0.98875863  0.80278013  0.15280341     0.14100
C1329       C  0.84503599  0.66956972  0.01778567    -0.15500
C1330       C  0.82919949  0.65792705  0.98970862    -0.30600
H1331       H  0.84180394  0.65617103  0.04186478     0.13600
H1332       H  0.83495725  0.66966083  0.96533471     0.14100
C1333       C  0.94512171  0.73362357  0.06189513    -0.15500
C1334       C  0.95376736  0.71002855  0.08573636    -0.30600
H1335       H  0.96082209  0.75627393  0.05843569     0.13600
H1336       H  0.93815642  0.68711517  0.08827883     0.14100
C1337       C  0.09150193  0.74872787  0.06348850    -0.15500
C1338       C  0.06008362  0.73547866  0.06696767    -0.30600
H1339       H  0.10469895  0.75884828  0.08549088     0.13600
H1340       H  0.04618831  0.72692124  0.04475193     0.14100
C1341       C  0.19513710  0.81492690  0.00102589    -0.15500
C1342       C  0.18768063  0.78327344  0.98985020    -0.30600
H1343       H  0.17610239  0.82996860  0.01404633     0.13600
H1344       H  0.20609121  0.77015870  0.97421245     0.14100
loop_ 
_geom_bond_atom_site_label_1 
_geom_bond_atom_site_label_2 
_geom_bond_distance 
_geom_bond_site_symmetry_2 
_ccdc_geom_bond_type 
C1            N2   1.367   1_556  A
C1            N6   1.355       .  A
C1         C1342   1.480       .  S
N2            C3   1.369       .  A
C3            N4   1.363       .  A
C3         C1337   1.489       .  S
N4            C5   1.357   1_554  A
C5            N6   1.352       .  A
C5          C658   1.465       .  S
C7            N8   1.366       .  A
C7           N12   1.359       .  A
C7         C1333   1.489       .  S
N8            C9   1.366       .  A
C9           N10   1.362   1_554  A
C9         C1329   1.488       .  S
N10          C11   1.358       .  A
C11          N12   1.357   1_556  A
C11         C950   1.470       .  S
C13          C14   1.538   1_455  S
C13          C19   1.525       .  S
C13          C17   1.538       .  S
C13        C1322   1.527       .  S
C14          H21   1.088       .  S
C14          C15   1.368       .  D
C15          C16   1.554   1_655  S
C15        C1334   1.499       .  S
C16          C20   1.553       .  S
C16          C18   1.548       .  S
C16          H22   1.106       .  S
C17          H23   1.087       .  S
C17          C18   1.372       .  D
C18        C1338   1.487       .  S
C19          H24   1.084       .  S
C19          C20   1.366       .  D
C20        C1326   1.503       .  S
C25          N26   1.358       .  A
C25          N30   1.359       .  A
C25         C627   1.472       .  S
N26          C27   1.360       .  A
C27          N28   1.360       .  A
C27        C1313   1.474       .  S
N28          C29   1.361       .  A
C29          N30   1.363       .  A
C29        C1317   1.486       .  S
C31          N32   1.364       .  A
C31          N36   1.355       .  A
C31        C1305   1.476       .  S
N32          C33   1.363       .  A
C33          N34   1.362       .  A
C33        C1309   1.481       .  S
N34          C35   1.358       .  A
C35          N36   1.353       .  A
C35         C532   1.463       .  S
C37          C38   1.537       .  S
C37          C43   1.526       .  S
C37          C41   1.538       .  S
C37        C1310   1.518       .  S
C38          H45   1.083       .  S
C38          C39   1.372   1_556  D
C39          C40   1.546       .  S
C39        C1301   1.498       .  S
C40          C44   1.546       .  S
C40          C42   1.549   1_554  S
C40          H46   1.110       .  S
C41          H47   1.086       .  S
C41          C42   1.372       .  D
C42        C1330   1.491       .  S
C43          H48   1.087       .  S
C43          C44   1.358   1_556  D
C44        C1318   1.478       .  S
C49          C50   1.535       .  S
C49          C55   1.531       .  S
C49          C53   1.530       .  S
C49        C1306   1.516       .  S
C50          H57   1.085       .  S
C50          C51   1.374       .  D
C51          C52   1.548       .  S
C51        C1293   1.493       .  S
C52          C56   1.549       .  S
C52          C54   1.541       .  S
C52          H58   1.111       .  S
C53          H59   1.087       .  S
C53          C54   1.362       .  D
C54        C1297   1.478       .  S
C55          H60   1.083       .  S
C55          C56   1.371       .  D
C56        C1289   1.503       .  S
C61          N62   1.362       .  A
C61          N66   1.362   1_655  A
C61        C1285   1.485       .  S
N62          C63   1.362       .  A
C63          N64   1.358   1_655  A
C63        C1298   1.477       .  S
N64          C65   1.355       .  A
C65          N66   1.358       .  A
C65         C668   1.470       .  S
C67          N68   1.359       .  A
C67          N72   1.359   1_455  A
C67         C350   1.469       .  S
N68          C69   1.358       .  A
C69          N70   1.362   1_455  A
C69        C1281   1.486       .  S
N70          C71   1.363       .  A
C71          N72   1.362       .  A
C71        C1294   1.484       .  S
C73          N74   1.363       .  A
C73          N78   1.361       .  A
C73         C549   1.468       .  S
N74          C75   1.361       .  A
C75          N76   1.354       .  A
C75        C1273   1.472       .  S
N76          C77   1.356       .  A
C77          N78   1.360       .  A
C77        C1277   1.477       .  S
C79          N80   1.360       .  A
C79          N84   1.358       .  A
C79         C926   1.473       .  S
N80          C81   1.363       .  A
C81          N82   1.361       .  A
C81        C1269   1.491       .  S
N82          C83   1.363       .  A
C83          N84   1.361       .  A
C83        C1265   1.479       .  S
C85          C86   1.538       .  S
C85          C91   1.526       .  S
C85          C89   1.532       .  S
C85        C1257   1.526       .  S
C86          H93   1.082       .  S
C86          C87   1.364       .  D
C87          C88   1.550       .  S
C87        C1270   1.490       .  S
C88          C92   1.550       .  S
C88          C90   1.545       .  S
C88          H94   1.111       .  S
C89          H95   1.082       .  S
C89          C90   1.375       .  D
C90        C1278   1.493       .  S
C91          H96   1.087       .  S
C91          C92   1.369       .  D
C92        C1261   1.499       .  S
C97          N98   1.369       .  A
C97         N102   1.357       .  A
C97        C1290   1.480       .  S
N98          C99   1.371       .  A
C99         N100   1.360       .  A
C99        C1253   1.483       .  S
N100        C101   1.353       .  A
C101        N102   1.351       .  A
C101        C916   1.468       .  S
C103        N104   1.355       .  A
C103        N108   1.364       .  A
C103       C1245   1.477       .  S
N104        C105   1.353       .  A
C105        N106   1.356       .  A
C105        C460   1.464       .  S
N106        C107   1.362       .  A
C107        N108   1.366       .  A
C107       C1250   1.480       .  S
C109        C110   1.537       .  S
C109        C115   1.528       .  S
C109        C113   1.540       .  S
C109       C1237   1.521       .  S
C110        H117   1.087       .  S
C110        C111   1.368       .  D
C111        C112   1.542       .  S
C111       C1249   1.483       .  S
C112        C116   1.547       .  S
C112        C114   1.551       .  S
C112        H118   1.109       .  S
C113        H119   1.086       .  S
C113        C114   1.369       .  D
C114       C1254   1.496       .  S
C115        H120   1.087       .  S
C115        C116   1.366       .  D
C116       C1241   1.497       .  S
C121        N122   1.357       .  A
C121        N126   1.357       .  A
C121        C843   1.463       .  S
N122        C123   1.357   1_565  A
C123        N124   1.361       .  A
C123       C1229   1.477       .  S
N124        C125   1.361   1_545  A
C125        N126   1.360       .  A
C125       C1234   1.480   1_565  S
C127        N128   1.355       .  A
C127        N132   1.357   1_545  A
C127       C1221   1.471       .  S
N128        C129   1.358       .  A
C129        N130   1.362       .  A
C129       C1225   1.475       .  S
N130        C131   1.359   1_545  A
C131        N132   1.357       .  A
C131        C940   1.464       .  S
C133        C134   1.532   1_554  S
C133        C139   1.527       .  S
C133        C137   1.543       .  S
C133       C1218   1.520       .  S
C134        H141   1.084       .  S
C134        C135   1.372       .  D
C135        C136   1.540   1_556  S
C135       C1226   1.489       .  S
C136        C140   1.539       .  S
C136        C138   1.541       .  S
C136        H142   1.111       .  S
C137        H143   1.082       .  S
C137        C138   1.370       .  D
C138       C1230   1.484       .  S
C139        H144   1.087       .  S
C139        C140   1.365       .  D
C140       C1213   1.486       .  S
C145        C146   1.536       .  S
C145        C151   1.527       .  S
C145        C149   1.535       .  S
C145       C1210   1.520       .  S
C146        H153   1.086       .  S
C146        C147   1.367       .  D
C147        C148   1.544       .  S
C147       C1266   1.484       .  S
C148        C152   1.551       .  S
C148        C150   1.550       .  S
C148        H154   1.108       .  S
C149        H155   1.086       .  S
C149        C150   1.369       .  D
C150       C1201   1.491       .  S
C151        H156   1.086       .  S
C151        C152   1.370       .  D
C152       C1205   1.501       .  S
C157        N158   1.356   1_556  A
C157        N162   1.360       .  A
C157       C1209   1.483       .  S
N158        C159   1.358       .  A
C159        N160   1.361       .  A
C159        C836   1.468       .  S
N160        C161   1.363   1_554  A
C161        N162   1.363       .  A
C161       C1302   1.484       .  S
C163        N164   1.372       .  A
C163        N168   1.361   1_556  A
C163       C1197   1.491       .  S
N164        C165   1.369       .  A
C165        N166   1.357       .  A
C165       C1206   1.482       .  S
N166        C167   1.349   1_556  A
C167        N168   1.351       .  A
C167        C436   1.463       .  S
C169        N170   1.361       .  A
C169        N174   1.364       .  A
C169       C1189   1.481       .  S
N170        C171   1.356       .  A
C171        N172   1.354       .  A
C171        C699   1.470       .  S
N172        C173   1.361       .  A
C173        N174   1.364       .  A
C173       C1193   1.482       .  S
C175        C176   1.533   1_565  S
C175        C181   1.524       .  S
C175        C179   1.534       .  S
C175       C1222   1.509       .  S
C176        H183   1.086       .  S
C176        C177   1.367       .  D
C177        C178   1.547   1_545  S
C177       C1194   1.482       .  S
C178        C182   1.545       .  S
C178        C180   1.545       .  S
C178        H184   1.111       .  S
C179        H185   1.084       .  S
C179        C180   1.372       .  D
C180       C1186   1.492       .  S
C181        H186   1.087   1_565  S
C181        C182   1.359       .  D
C182       C1181   1.474       .  S
C187        N188   1.359       .  A
C187        N192   1.361       .  A
C187       C1202   1.486       .  S
N188        C189   1.359       .  A
C189        N190   1.358       .  A
C189        C374   1.465       .  S
N190        C191   1.360       .  A
C191        N192   1.361       .  A
C191       C1185   1.479       .  S
C193        N194   1.351   1_655  A
C193        N198   1.352       .  A
C193        C603   1.466       .  S
N194        C195   1.361       .  A
C195        N196   1.372       .  A
C195       C1173   1.492       .  S
N196        C197   1.371   1_455  A
C197        N198   1.359       .  A
C197       C1177   1.486       .  S
C199        N200   1.358       .  A
C199        N204   1.368       .  A
C199       C1169   1.488       .  S
N200        C201   1.356   1_455  A
C201        N202   1.355       .  A
C201        C957   1.463       .  S
N202        C203   1.359   1_655  A
C203        N204   1.365       .  A
C203       C1166   1.485       .  S
C205        C206   1.531       .  S
C205        C211   1.526       .  S
C205        C209   1.532   1_565  S
C205       C1162   1.517       .  S
C206        H213   1.086       .  S
C206        C207   1.366       .  D
C207        C208   1.559       .  S
C207       C1170   1.492       .  S
C208        C212   1.553       .  S
C208        C210   1.550   1_565  S
C208        H214   1.109       .  S
C209        H215   1.086       .  S
C209        C210   1.369       .  D
C210       C1174   1.486       .  S
C211        H216   1.087       .  S
C211        C212   1.361       .  D
C212       C1157   1.484       .  S
C217        N218   1.353       .  A
C217        N222   1.357       .  A
C217       C1149   1.470       .  S
N218        C219   1.357       .  A
C219        N220   1.363       .  A
C219       C1153   1.478       .  S
N220        C221   1.364       .  A
C221        N222   1.360       .  A
C221        C860   1.467       .  S
C223        N224   1.369       .  A
C223        N228   1.357       .  A
C223       C1141   1.482       .  S
N224        C225   1.367       .  A
C225        N226   1.360       .  A
C225       C1145   1.487       .  S
N226        C227   1.353       .  A
C227        N228   1.352       .  A
C227        C470   1.461       .  S
C229        C230   1.539       .  S
C229        C235   1.528       .  S
C229        C233   1.531   1_655  S
C229       C1286   1.522       .  S
C230        H237   1.083       .  S
C230        C231   1.369       .  D
C231        C232   1.548       .  S
C231       C1146   1.488       .  S
C232        C236   1.547       .  S
C232        C234   1.545   1_655  S
C232        H238   1.110       .  S
C233        H239   1.082       .  S
C233        C234   1.374       .  D
C234       C1154   1.498       .  S
C235        H240   1.087       .  S
C235        C236   1.362       .  D
C236       C1165   1.479       .  S
C241        C242   1.541       .  S
C241        C247   1.536       .  S
C241        C245   1.533       .  S
C241       C1142   1.521       .  S
C242        H249   1.083       .  S
C242        C243   1.372       .  D
C243        C244   1.546       .  S
C243       C1137   1.495       .  S
C244        C248   1.545       .  S
C244        C246   1.539       .  S
C244        H250   1.111       .  S
C245        H251   1.086       .  S
C245        C246   1.364       .  D
C246       C1133   1.475       .  S
C247        H252   1.086       .  S
C247        C248   1.371       .  D
C248       C1129   1.499       .  S
C253        N254   1.363       .  A
C253        N258   1.361       .  A
C253       C1182   1.484       .  S
N254        C255   1.363       .  A
C255        N256   1.359       .  A
C255       C1134   1.480       .  S
N256        C257   1.354       .  A
C257        N258   1.354       .  A
C257        C596   1.466   1_565  S
C259        N260   1.365       .  A
C259        N264   1.357       .  A
C259       C1125   1.480       .  S
N260        C261   1.366       .  A
C261        N262   1.361       .  A
C261       C1138   1.488       .  S
N262        C263   1.356       .  A
C263        N264   1.354       .  A
C263        C573   1.465   1_565  S
C265        N266   1.360       .  A
C265        N270   1.368       .  A
C265       C1130   1.486       .  S
N266        C267   1.355       .  A
C267        N268   1.354       .  A
C267        C933   1.470       .  S
N268        C269   1.362       .  A
C269        N270   1.369       .  A
C269       C1121   1.487       .  S
C271        N272   1.360       .  A
C271        N276   1.363       .  A
C271       C1113   1.478       .  S
N272        C273   1.355       .  A
C273        N274   1.354       .  A
C273        C364   1.461       .  S
N274        C275   1.358       .  A
C275        N276   1.360       .  A
C275       C1117   1.483       .  S
C277        C278   1.540       .  S
C277        C283   1.525       .  S
C277        C281   1.531       .  S
C277       C1106   1.520       .  S
C278        H285   1.083       .  S
C278        C279   1.369       .  D
C279        C280   1.547       .  S
C279       C1122   1.487       .  S
C280        C284   1.545       .  S
C280        C282   1.547       .  S
C280        H286   1.111       .  S
C281        H287   1.083       .  S
C281        C282   1.371       .  D
C282       C1114   1.489       .  S
C283        H288   1.086       .  S
C283        C284   1.368       .  D
C284       C1109   1.498       .  S
C289        N290   1.360       .  A
C289        N294   1.367       .  A
C289       C1097   1.487       .  S
N290        C291   1.357       .  A
C291        N292   1.357       .  A
C291        C892   1.471       .  S
N292        C293   1.362       .  A
C293        N294   1.364       .  A
C293       C1101   1.489       .  S
C295        C296   1.537       .  S
C295        C301   1.523       .  S
C295        C299   1.537       .  S
C295       C1274   1.518       .  S
C296        H303   1.084       .  S
C296        C297   1.374       .  D
C297        C298   1.550       .  S
C297       C1093   1.495       .  S
C298        C302   1.550       .  S
C298        C300   1.548       .  S
C298        H304   1.110       .  S
C299        H305   1.086       .  S
C299        C300   1.368       .  D
C300       C1102   1.491       .  S
C301        H306   1.087       .  S
C301        C302   1.363       .  D
C302       C1190   1.493       .  S
C307        N308   1.364       .  A
C307        N312   1.367       .  A
C307       C1094   1.486       .  S
N308        C309   1.358       .  A
C309        N310   1.353       .  A
C309        C556   1.467       .  S
N310        C311   1.356       .  A
C311        N312   1.363       .  A
C311       C1242   1.479       .  S
C313        N314   1.366   1_565  A
C313        N318   1.357       .  A
C313       C1161   1.477       .  S
N314        C315   1.364       .  A
C315        N316   1.361   1_545  A
C315       C1089   1.484       .  S
N316        C317   1.353       .  A
C317        N318   1.353       .  A
C317        C381   1.462       .  S
C319        C320   1.531       .  S
C319        C325   1.534       .  S
C319        C323   1.545       .  S
C319       C1098   1.524       .  S
C320        H327   1.088       .  S
C320        C321   1.361       .  D
C321        C322   1.543       .  S
C321       C1090   1.482       .  S
C322        C326   1.541       .  S
C322        C324   1.545       .  S
C322        H328   1.111       .  S
C323        H329   1.084       .  S
C323        C324   1.378       .  D
C324       C1086   1.493       .  S
C325        H330   1.085       .  S
C325        C326   1.368       .  D
C326       C1081   1.494       .  S
C331        N332   1.366       .  A
C331        N336   1.356       .  A
C331       C1082   1.479       .  S
N332        C333   1.367       .  A
C333        N334   1.362       .  A
C333       C1078   1.489       .  S
N334        C335   1.354       .  A
C335        N336   1.352       .  A
C335        C340   1.465       .  S
N337        C341   1.345       .  A
N337        N338   1.322       .  A
N337       Cu345   2.076       .  S
N338        C339   1.346       .  A
N338       Cu344   2.069       .  S
C339        C340   1.382       .  A
C339        H342   1.082       .  S
C340        C341   1.382       .  A
C341        H343   1.083       .  S
Cu344       N347   2.070       .  S
Cu345       N355   2.077       .  S
Cu346       N348   2.097       .  S
Cu346       N354   2.098       .  S
N347        C351   1.344       .  A
N347        N348   1.324       .  A
N348        C349   1.350       .  A
C349        C350   1.386       .  A
C349        H352   1.083       .  S
C350        C351   1.379       .  A
C351        H353   1.082       .  S
N354        C358   1.350       .  A
N354        N355   1.324       .  A
N355        C356   1.346       .  A
C356        C357   1.380       .  A
C356        H359   1.082       .  S
C357        C403   1.470       .  S
C357        C358   1.385       .  A
C358        H360   1.082       .  S
N361        C365   1.343       .  A
N361        N362   1.323       .  A
N361       Cu369   2.070       .  S
N362        C363   1.347       .  A
N362       Cu368   2.075       .  S
C363        C364   1.381       .  A
C363        H366   1.083       .  S
C364        C365   1.379       .  A
C365        H367   1.082       .  S
Cu368       N371   2.076       .  S
Cu369       N379   2.070       .  S
Cu370       N372   2.078       .  S
Cu370       N378   2.078       .  S
N371        C375   1.346       .  A
N371        N372   1.323       .  A
N372        C373   1.346       .  A
C373        C374   1.382       .  A
C373        H376   1.081       .  S
C374        C375   1.381       .  A
C375        H377   1.083       .  S
N378        C382   1.346       .  A
N378        N379   1.323       .  A
N379        C380   1.345       .  A
C380        C381   1.379       .  A
C380        H383   1.082       .  S
C381        C382   1.381       .  A
C382        H384   1.082       .  S
C385        N386   1.352       .  A
C385        N390   1.361       .  A
C385       C1069   1.475       .  S
N386        C387   1.355       .  A
C387        N388   1.365       .  A
C387       C1073   1.478       .  S
N388        C389   1.365       .  A
C389        N390   1.362       .  A
C389        C909   1.477       .  S
C391        C392   1.539       .  S
C391        C397   1.526       .  S
C391        C395   1.535       .  S
C391       C1150   1.514       .  S
C392        H399   1.085       .  S
C392        C393   1.376       .  D
C393        C394   1.539       .  S
C393       C1074   1.491       .  S
C394        C398   1.542       .  S
C394        C396   1.547       .  S
C394        H400   1.111       .  S
C395        H401   1.087       .  S
C395        C396   1.365       .  D
C396       C1065   1.482       .  S
C397        H402   1.087       .  S
C397        C398   1.358       .  D
C398       C1118   1.474       .  S
C403        N404   1.361       .  A
C403        N408   1.360       .  A
N404        C405   1.362       .  A
C405        N406   1.358       .  A
C405       C1258   1.480       .  S
N406        C407   1.356       .  A
C407        N408   1.361       .  A
C407       C1066   1.478       .  S
C409        N410   1.369       .  A
C409        N414   1.360       .  A
C409       C1321   1.483       .  S
N410        C411   1.369       .  A
C411        N412   1.358       .  A
C411       C1061   1.477       .  S
N412        C413   1.352       .  A
C413        N414   1.353       .  A
C413        C477   1.466   1_455  S
C415        C416   1.538       .  S
C415        C421   1.521       .  S
C415        C419   1.529       .  S
C415       C1070   1.514       .  S
C416        H423   1.085       .  S
C416        C417   1.374       .  D
C417        C418   1.545       .  S
C417       C1062   1.495       .  S
C418        C422   1.543       .  S
C418        C420   1.546       .  S
C418        H424   1.111       .  S
C419        H425   1.082       .  S
C419        C420   1.373       .  D
C420       C1057   1.495       .  S
C421        H426   1.088       .  S
C421        C422   1.363       .  D
C422       C1053   1.486       .  S
C427        N428   1.352       .  A
C427        N432   1.362       .  A
C427       C1054   1.472       .  S
N428        C429   1.350       .  A
C429        N430   1.357       .  A
C429        C446   1.462       .  S
N430        C431   1.365       .  A
C431        N432   1.366       .  A
C431       C1049   1.483       .  S
N433        C437   1.347       .  A
N433        N434   1.323       .  A
N433       Cu441   2.081       .  S
N434        C435   1.344       .  A
N434       Cu440   2.070       .  S
C435        C436   1.379       .  A
C435        H438   1.083       .  S
C436        C437   1.383       .  A
C437        H439   1.081       .  S
Cu440       N443   2.071       .  S
Cu441       N451   2.081       .  S
Cu442       N444   2.079       .  S
Cu442       N450   2.079       .  S
N443        C447   1.345       .  A
N443        N444   1.321       .  A
N444        C445   1.345       .  A
C445        C446   1.384       .  A
C445        H448   1.081       .  S
C446        C447   1.382       .  A
C447        H449   1.082       .  S
N450        C454   1.346       .  A
N450        N451   1.323       .  A
N451        C452   1.347       .  A
C452        C453   1.382       .  A
C452        H455   1.082       .  S
C453        C499   1.467       .  S
C453        C454   1.382       .  A
C454        H456   1.082       .  S
N457        C461   1.343       .  A
N457        N458   1.323       .  A
N457       Cu465   2.076       .  S
N458        C459   1.349       .  A
N458       Cu464   2.076       .  S
C459        C460   1.383       .  A
C459        H462   1.081       .  S
C460        C461   1.380       .  A
C461        H463   1.082       .  S
Cu464       N467   2.077       .  S
Cu465       N475   2.076       .  S
Cu466       N468   2.077       .  S
Cu466       N474   2.077       .  S
N467        C471   1.345       .  A
N467        N468   1.324       .  A
N468        C469   1.346       .  A
C469        C470   1.379       .  A
C469        H472   1.083       .  S
C470        C471   1.380       .  A
C471        H473   1.081       .  S
N474        C478   1.347       .  A
N474        N475   1.322       .  A
N475        C476   1.346       .  A
C476        C477   1.381       .  A
C476        H479   1.083       .  S
C477        C478   1.382       .  A
C478        H480   1.081       .  S
C481        N482   1.366       .  A
C481        N486   1.356       .  A
C481       C1041   1.479       .  S
N482        C483   1.367       .  A
C483        N484   1.364       .  A
C483       C1045   1.490       .  S
N484        C485   1.356       .  A
C485        N486   1.352       .  A
C485        C902   1.466       .  S
C487        C488   1.545       .  S
C487        C493   1.530       .  S
C487        C491   1.538       .  S
C487       C1314   1.518       .  S
C488        H495   1.085       .  S
C488        C489   1.375       .  D
C489        C490   1.543       .  S
C489       C1046   1.492       .  S
C490        C494   1.540       .  S
C490        C492   1.537       .  S
C490        H496   1.112       .  S
C491        H497   1.085       .  S
C491        C492   1.368       .  D
C492       C1038   1.481       .  S
C493        H498   1.085       .  S
C493        C494   1.365       .  D
C494       C1246   1.493       .  S
C499        N500   1.356       .  A
C499        N504   1.356       .  A
N500        C501   1.362       .  A
C501        N502   1.362       .  A
C501       C1105   1.484       .  S
N502        C503   1.362       .  A
C503        N504   1.358       .  A
C503       C1037   1.477       .  S
C505        N506   1.366       .  A
C505        N510   1.362       .  A
C505       C1030   1.493       .  S
N506        C507   1.368       .  A
C507        N508   1.356       .  A
C507       C1033   1.483       .  S
N508        C509   1.354       .  A
C509        N510   1.355       .  A
C509        C566   1.464       .  S
C511        N512   1.356       .  A
C511        N516   1.360       .  A
C511       C1217   1.481       .  S
N512        C513   1.358       .  A
C513        N514   1.361       .  A
C513       C1026   1.478       .  S
N514        C515   1.360       .  A
C515        N516   1.359       .  A
C515        C542   1.468   1_554  S
C517        C518   1.542       .  S
C517        C523   1.529       .  S
C517        C521   1.535       .  S
C517       C1029   1.523       .  S
C518        H525   1.084       .  S
C518        C519   1.377       .  D
C519        C520   1.546       .  S
C519       C1021   1.497       .  S
C520        C524   1.541       .  S
C520        C522   1.540       .  S
C520        H526   1.111       .  S
C521        H527   1.083       .  S
C521        C522   1.371       .  D
C522       C1025   1.492       .  S
C523        H528   1.086       .  S
C523        C524   1.366       .  D
C524       C1042   1.493       .  S
N529        C533   1.345       .  A
N529        N530   1.322       .  A
N529       Cu537   2.074       .  S
N530        C531   1.346       .  A
N530       Cu536   2.072       .  S
C531        C532   1.381       .  A
C531        H534   1.082       .  S
C532        C533   1.382       .  A
C533        H535   1.081       .  S
Cu536       N539   2.073       .  S
Cu537       N547   2.074       .  S
Cu538       N540   2.093       .  S
Cu538       N546   2.093       .  S
N539        C543   1.345       .  A
N539        N540   1.324       .  A
N540        C541   1.349       .  A
C541        C542   1.384       .  A
C541        H544   1.083       .  S
C542        C543   1.380       .  A
C543        H545   1.081       .  S
N546        C550   1.348       .  A
N546        N547   1.324       .  A
N547        C548   1.346       .  A
C548        C549   1.380       .  A
C548        H551   1.081       .  S
C549        C550   1.384       .  A
C550        H552   1.082       .  S
N553        C557   1.345       .  A
N553        N554   1.323       .  A
N553       Cu561   2.076       .  S
N554        C555   1.348       .  A
N554       Cu560   2.084       .  S
C555        C556   1.383       .  A
C555        H558   1.083       .  S
C556        C557   1.382       .  A
C557        H559   1.082       .  S
Cu560       N563   2.085       .  S
Cu561       N571   2.075       .  S
Cu562       N564   2.076       .  S
Cu562       N570   2.076       .  S
N563        C567   1.348       .  A
N563        N564   1.324       .  A
N564        C565   1.344       .  A
C565        C566   1.379       .  A
C565        H568   1.083       .  S
C566        C567   1.382       .  A
C567        H569   1.081       .  S
N570        C574   1.347       .  A
N570        N571   1.322       .  A
N571        C572   1.345       .  A
C572        C573   1.380       .  A
C572        H575   1.083       .  S
C573        C574   1.383       .  A
C574        H576   1.081       .  S
C577        N578   1.365       .  A
C577        N582   1.358       .  A
C577       C1238   1.480       .  S
N578        C579   1.365       .  A
C579        N580   1.359       .  A
C579       C1017   1.478       .  S
N580        C581   1.354       .  A
C581        N582   1.355       .  A
C581        C586   1.463       .  S
N583        C587   1.346       .  A
N583        N584   1.321       .  A
N583       Cu591   2.077       .  S
N584        C585   1.345       .  A
N584       Cu590   2.062       .  S
C585        C586   1.380       .  A
C585        H588   1.081       .  S
C586        C587   1.383       .  A
C587        H589   1.082       .  S
Cu590       N593   2.061       .  S
Cu591       N601   2.078       .  S
Cu592       N594   2.088       .  S
Cu592       N600   2.088       .  S
N593        C597   1.343       .  A
N593        N594   1.322       .  A
N594        C595   1.348       .  A
C595        C596   1.385       .  A
C595        H598   1.082       .  S
C596        C597   1.378       .  A
C597        H599   1.082       .  S
N600        C604   1.347       .  A
N600        N601   1.325       .  A
N601        C602   1.346       .  A
C602        C603   1.380       .  A
C602        H605   1.081       .  S
C603        C604   1.382       .  A
C604        H606   1.083       .  S
N607        C611   1.347       .  A
N607        N608   1.323       .  A
N607       Cu615   2.083       .  S
N608        C609   1.346       .  A
N608       Cu614   2.076       .  S
C609        C610   1.381       .  A
C609        H612   1.081       .  S
C610        C757   1.466       .  S
C610        C611   1.383       .  A
C611        H613   1.083       .  S
Cu614       N617   2.076       .  S
Cu615       N625   2.083       .  S
Cu616       N618   2.086       .  S
Cu616       N624   2.086       .  S
N617        C621   1.346       .  A
N617        N618   1.324       .  A
N618        C619   1.347       .  A
C619        C620   1.383       .  A
C619        H622   1.082       .  S
C620        C631   1.467   1_655  S
C620        C621   1.381       .  A
C621        H623   1.082       .  S
N624        C628   1.349       .  A
N624        N625   1.323       .  A
N625        C626   1.347       .  A
C626        C627   1.382       .  A
C626        H629   1.082       .  S
C627        C628   1.385       .  A
C628        H630   1.081       .  S
C631        N632   1.362       .  A
C631        N636   1.363       .  A
N632        C633   1.359       .  A
C633        N634   1.355       .  A
C633       C1058   1.476       .  S
N634        C635   1.355       .  A
C635        N636   1.361       .  A
C635       C1014   1.478       .  S
C637        C638   1.542       .  S
C637        C643   1.529       .  S
C637        C641   1.535       .  S
C637       C1077   1.521       .  S
C638        H645   1.083       .  S
C638        C639   1.370       .  D
C639        C640   1.545       .  S
C639       C1009   1.486       .  S
C640        C644   1.540   1_455  S
C640        C642   1.542       .  S
C640        H646   1.110   1_455  S
C641        H647   1.084       .  S
C641        C642   1.374       .  D
C642       C1013   1.495       .  S
C643        H648   1.087       .  S
C643        C644   1.360   1_455  D
C644       C1018   1.477       .  S
C649        N650   1.356       .  A
C649        N654   1.369       .  A
C649       C1262   1.484       .  S
N650        C651   1.351       .  A
C651        N652   1.357       .  A
C651        C675   1.473       .  S
N652        C653   1.367       .  A
C653        N654   1.371       .  A
C653       C1005   1.496       .  S
N655        C659   1.345       .  A
N655        N656   1.323       .  A
N655       Cu663   2.084       .  S
N656        C657   1.347       .  A
N656       Cu662   2.075       .  S
C657        C658   1.382       .  A
C657        H660   1.081       .  S
C658        C659   1.382       .  A
C659        H661   1.083       .  S
Cu662       N665   2.074       .  S
Cu663       N673   2.083       .  S
Cu664       N666   2.088       .  S
Cu664       N672   2.088       .  S
N665        C669   1.345       .  A
N665        N666   1.323       .  A
N666        C667   1.348       .  A
C667        C668   1.386       .  A
C667        H670   1.082       .  S
C668        C669   1.381       .  A
C669        H671   1.082       .  S
N672        C676   1.346       .  A
N672        N673   1.323       .  A
N673        C674   1.349       .  A
C674        C675   1.385       .  A
C674        H677   1.082       .  S
C675        C676   1.385       .  A
C676        H678   1.082       .  S
N679        C683   1.348       .  A
N679        N680   1.323       .  A
N679       Cu687   2.076       .  S
N680        C681   1.346       .  A
N680       Cu686   2.084       .  S
C681        C682   1.383       .  A
C681        H684   1.082       .  S
C682        C705   1.467       .  S
C682        C683   1.382       .  A
C683        H685   1.081       .  S
Cu686       N689   2.084       .  S
Cu687       N697   2.077       .  S
Cu688       N690   2.092       .  S
Cu688       N696   2.093       .  S
N689        C693   1.347       .  A
N689        N690   1.324       .  A
N690        C691   1.349       .  A
C691        C692   1.385       .  A
C691        H694   1.082       .  S
C692        C735   1.473   1_545  S
C692        C693   1.383       .  A
C693        H695   1.082       .  S
N696        C700   1.349       .  A
N696        N697   1.324       .  A
N697        C698   1.346       .  A
C698        C699   1.381       .  A
C698        H701   1.082       .  S
C699        C700   1.384       .  A
C700        H702   1.083       .  S
C703        N704   1.360       .  A
C703        N708   1.374       .  A
C703       C1022   1.484       .  S
N704        C705   1.351   1_554  A
C705        N706   1.350       .  A
N706        C707   1.358   1_556  A
C707        N708   1.372       .  A
C707       C1001   1.486       .  S
C709        C710   1.538       .  S
C709        C715   1.523       .  S
C709        C713   1.540   1_554  S
C709        C997   1.533       .  S
C710        H717   1.084       .  S
C710        C711   1.375       .  D
C711        C712   1.546       .  S
C711       C1050   1.493       .  S
C712        C716   1.555       .  S
C712        C714   1.551   1_554  S
C712        H718   1.110       .  S
C713        H719   1.084       .  S
C713        C714   1.366       .  D
C714       C1006   1.496       .  S
C715        H720   1.086       .  S
C715        C716   1.368       .  D
C716       C1002   1.503       .  S
C721        C722   1.534       .  S
C721        C727   1.530       .  S
C721        C725   1.538   1_556  S
C721       C1198   1.522       .  S
C722        H729   1.084       .  S
C722        C723   1.368       .  D
C723        C724   1.548       .  S
C723        C993   1.483       .  S
C724        C728   1.543       .  S
C724        C726   1.544   1_556  S
C724        H730   1.110       .  S
C725        H731   1.083       .  S
C725        C726   1.374       .  D
C726        C989   1.497       .  S
C727        H732   1.086       .  S
C727        C728   1.367       .  D
C728       C1341   1.494   1_556  S
C733        N734   1.365       .  A
C733        N738   1.365       .  A
C733       C1158   1.493       .  S
N734        C735   1.358       .  A
C735        N736   1.354       .  A
N736        C737   1.359       .  A
C737        N738   1.364       .  A
C737        C994   1.483       .  S
C739        N740   1.359       .  A
C739        N744   1.355       .  A
C739        C985   1.477       .  S
N740        C741   1.362       .  A
C741        N742   1.365       .  A
C741        C990   1.483       .  S
N742        C743   1.363       .  A
C743        N744   1.356       .  A
C743        C806   1.471   1_565  S
C745        C746   1.533       .  S
C745        C751   1.529       .  S
C745        C749   1.539   1_655  S
C745       C1282   1.522       .  S
C746        H753   1.086       .  S
C746        C747   1.368       .  D
C747        C748   1.546   1_655  S
C747        C981   1.493       .  S
C748        C752   1.551       .  S
C748        C750   1.545       .  S
C748        H754   1.111       .  S
C749        H755   1.084       .  S
C749        C750   1.376       .  D
C750        C978   1.498       .  S
C751        H756   1.086       .  S
C751        C752   1.369   1_655  D
C752       C1178   1.500       .  S
C757        N758   1.351       .  A
C757        N762   1.355       .  A
N758        C759   1.356       .  A
C759        N760   1.366   1_554  A
C759       C1214   1.475       .  S
N760        C761   1.367       .  A
C761        N762   1.361   1_556  A
C761        C982   1.478       .  S
C763        N764   1.358       .  A
C763        N768   1.361   1_556  A
C763        C998   1.483       .  S
N764        C765   1.358       .  A
C765        N766   1.362       .  A
C765        C977   1.485       .  S
N766        C767   1.363   1_556  A
C767        N768   1.363       .  A
C767        C796   1.471       .  S
C769        C770   1.533       .  S
C769        C775   1.531   1_545  S
C769        C773   1.547       .  S
C769        C969   1.521       .  S
C770        H777   1.083       .  S
C770        C771   1.373   1_545  D
C771        C772   1.546       .  S
C771       C1233   1.491       .  S
C772        C776   1.539       .  S
C772        C774   1.537       .  S
C772        H778   1.111       .  S
C773        H779   1.082       .  S
C773        C774   1.369   1_545  D
C774       C1126   1.490       .  S
C775        H780   1.087       .  S
C775        C776   1.363       .  D
C776        C973   1.482       .  S
C781        N782   1.365   1_455  A
C781        N786   1.361       .  A
C781       C1325   1.482       .  S
N782        C783   1.366       .  A
C783        N784   1.359   1_655  A
C783        C974   1.472       .  S
N784        C785   1.354       .  A
C785        N786   1.354       .  A
C785        C867   1.470       .  S
C787        N788   1.359       .  A
C787        N792   1.360       .  A
C787        C970   1.482       .  S
N788        C789   1.359   1_655  A
C789        N790   1.363       .  A
C789       C1010   1.480       .  S
N790        C791   1.360       .  A
C791        N792   1.358   1_455  A
C791        C813   1.470       .  S
N793        C797   1.350       .  A
N793        N794   1.324       .  A
N793       Cu801   2.092       .  S
N794        C795   1.346       .  A
N794       Cu800   2.083       .  S
C795        C796   1.380       .  A
C795        H798   1.083       .  S
C796        C797   1.385       .  A
C797        H799   1.081       .  S
Cu800       N803   2.082       .  S
Cu801       N811   2.092       .  S
Cu802       N804   2.083       .  S
Cu802       N810   2.083       .  S
N803        C807   1.348       .  A
N803        N804   1.322       .  A
N804        C805   1.346       .  A
C805        C806   1.384       .  A
C805        H808   1.081       .  S
C806        C807   1.384       .  A
C807        H809   1.083       .  S
N810        C814   1.347       .  A
N810        N811   1.324       .  A
N811        C812   1.349       .  A
C812        C813   1.384       .  A
C812        H815   1.081       .  S
C813        C814   1.382       .  A
C814        H816   1.081       .  S
C817        N818   1.365       .  A
C817        N822   1.374       .  A
C817        C965   1.494       .  S
N818        C819   1.353       .  A
C819        N820   1.346       .  A
C819        C826   1.464       .  S
N820        C821   1.351       .  A
C821        N822   1.369       .  A
C821       C1110   1.478       .  S
N823        C827   1.349       .  A
N823        N824   1.322       .  A
N823       Cu831   2.073       .  S
N824        C825   1.342       .  A
N824       Cu830   2.075       .  S
C825        C826   1.382       .  A
C825        H828   1.081       .  S
C826        C827   1.382       .  A
C827        H829   1.082       .  S
Cu830       N833   2.075       .  S
Cu831       N841   2.075       .  S
Cu832       N834   2.079       .  S
Cu832       N840   2.080       .  S
N833        C837   1.345       .  A
N833        N834   1.321       .  A
N834        C835   1.348       .  A
C835        C836   1.384       .  A
C835        H838   1.083       .  S
C836        C837   1.383       .  A
C837        H839   1.081       .  S
N840        C844   1.346       .  A
N840        N841   1.324       .  A
N841        C842   1.345       .  A
C842        C843   1.380       .  A
C842        H845   1.082       .  S
C843        C844   1.380       .  A
C844        H846   1.082       .  S
N847        C851   1.346       .  A
N847        N848   1.323       .  A
N847       Cu855   2.082       .  S
N848        C849   1.349       .  A
N848       Cu854   2.088       .  S
C849        C850   1.384       .  A
C849        H852   1.083       .  S
C850        C873   1.471       .  S
C850        C851   1.383       .  A
C851        H853   1.081       .  S
Cu854       N857   2.089       .  S
Cu855       N865   2.082       .  S
Cu856       N858   2.080       .  S
Cu856       N864   2.080       .  S
N857        C861   1.347       .  A
N857        N858   1.324       .  A
N858        C859   1.347       .  A
C859        C860   1.381       .  A
C859        H862   1.082       .  S
C860        C861   1.384       .  A
C861        H863   1.081       .  S
N864        C868   1.348       .  A
N864        N865   1.323       .  A
N865        C866   1.346       .  A
C866        C867   1.383       .  A
C866        H869   1.082       .  S
C867        C868   1.383       .  A
C868        H870   1.081       .  S
C871        N872   1.356       .  A
C871        N876   1.364   1_565  A
C871        C961   1.480       .  S
N872        C873   1.353       .  A
C873        N874   1.357       .  A
N874        C875   1.365   1_565  A
C875        N876   1.367       .  A
C875       C1085   1.490       .  S
C877        C878   1.532       .  S
C877        C883   1.528       .  S
C877        C881   1.533       .  S
C877        C986   1.517       .  S
C878        H885   1.087   1_565  S
C878        C879   1.364   1_565  D
C879        C880   1.555   1_545  S
C879       C1034   1.492       .  S
C880        C884   1.549       .  S
C880        C882   1.549       .  S
C880        H886   1.108       .  S
C881        H887   1.085       .  S
C881        C882   1.368       .  D
C882        C966   1.484       .  S
C883        H888   1.085       .  S
C883        C884   1.370       .  D
C884        C962   1.497       .  S
N889        C893   1.349       .  A
N889        N890   1.324       .  A
N889       Cu897   2.102       .  S
N890        C891   1.346       .  A
N890       Cu896   2.071       .  S
C891        C892   1.380       .  A
C891        H894   1.081       .  S
C892        C893   1.386       .  A
C893        H895   1.083       .  S
Cu896       N899   2.072       .  S
Cu897       N907   2.102       .  S
Cu898       N900   2.086       .  S
Cu898       N906   2.087       .  S
N899        C903   1.345       .  A
N899        N900   1.322       .  A
N900        C901   1.348       .  A
C901        C902   1.385       .  A
C901        H904   1.083       .  S
C902        C903   1.381       .  A
C903        H905   1.082       .  S
N906        C910   1.347       .  A
N906        N907   1.324       .  A
N907        C908   1.351       .  A
C908        C909   1.387       .  A
C908        H911   1.082       .  S
C909        C910   1.383       .  A
C910        H912   1.082       .  S
N913        C917   1.347       .  A
N913        N914   1.321       .  A
N913       Cu921   2.075       .  S
N914        C915   1.345       .  A
N914       Cu920   2.071       .  S
C915        C916   1.382       .  A
C915        H918   1.082       .  S
C916        C917   1.383       .  A
C917        H919   1.082       .  S
Cu920       N923   2.072       .  S
Cu921       N931   2.077       .  S
Cu922       N924   2.103       .  S
Cu922       N930   2.104       .  S
N923        C927   1.344       .  A
N923        N924   1.324       .  A
N924        C925   1.352       .  A
C925        C926   1.388       .  A
C925        H928   1.082       .  S
C926        C927   1.379       .  A
C927        H929   1.082       .  S
N930        C934   1.350       .  A
N930        N931   1.325       .  A
N931        C932   1.345       .  A
C932        C933   1.379       .  A
C932        H935   1.082       .  S
C933        C934   1.386       .  A
C934        H936   1.082       .  S
N937        C941   1.342       .  A
N937        N938   1.324       .  A
N937       Cu945   2.064       .  S
N938        C939   1.350       .  A
N938       Cu944   2.095       .  S
C939        C940   1.385       .  A
C939        H942   1.083       .  S
C940        C941   1.377       .  A
C941        H943   1.082       .  S
Cu944       N947   2.096       .  S
Cu945       N955   2.064       .  S
Cu946       N948   2.076       .  S
Cu946       N954   2.075       .  S
N947        C951   1.350       .  A
N947        N948   1.324       .  A
N948        C949   1.345       .  A
C949        C950   1.379       .  A
C949        H952   1.082       .  S
C950        C951   1.385       .  A
C951        H953   1.082       .  S
N954        C958   1.345       .  A
N954        N955   1.321       .  A
N955        C956   1.345       .  A
C956        C957   1.380       .  A
C956        H959   1.082       .  S
C957        C958   1.382       .  A
C958        H960   1.082       .  S
C961        H963   1.084       .  S
C961        C962   1.349       .  D
C962        H964   1.085       .  S
C965        H967   1.085       .  S
C965        C966   1.352       .  D
C966        H968   1.086       .  S
C969        H971   1.088       .  S
C969        C970   1.348       .  D
C970        H972   1.082       .  S
C973        H975   1.086       .  S
C973        C974   1.346       .  D
C974        H976   1.087       .  S
C977        H979   1.083       .  S
C977        C978   1.348       .  D
C978        H980   1.086       .  S
C981        H983   1.085       .  S
C981        C982   1.349       .  D
C982        H984   1.085       .  S
C985        H987   1.088       .  S
C985        C986   1.347       .  D
C986        H988   1.085       .  S
C989        H991   1.085       .  S
C989        C990   1.349       .  D
C990        H992   1.083       .  S
C993        H995   1.088       .  S
C993        C994   1.345       .  D
C994        H996   1.086       .  S
C997        H999   1.087       .  S
C997        C998   1.351   1_554  D
C998       H1000   1.083       .  S
C1001      H1003   1.089   1_554  S
C1001      C1002   1.350       .  D
C1002      H1004   1.084       .  S
C1005      H1007   1.086       .  S
C1005      C1006   1.349       .  D
C1006      H1008   1.089       .  S
C1009      H1011   1.087       .  S
C1009      C1010   1.344       .  D
C1010      H1012   1.085   1_455  S
C1013      H1015   1.084       .  S
C1013      C1014   1.347       .  D
C1014      H1016   1.081       .  S
C1017      H1019   1.088       .  S
C1017      C1018   1.347       .  D
C1018      H1020   1.085       .  S
C1021      H1023   1.086       .  S
C1021      C1022   1.345       .  D
C1022      H1024   1.086       .  S
C1025      H1027   1.085       .  S
C1025      C1026   1.347       .  D
C1026      H1028   1.082       .  S
C1029      H1031   1.087       .  S
C1029      C1030   1.351       .  D
C1030      H1032   1.084       .  S
C1033      H1035   1.084       .  S
C1033      C1034   1.341       .  D
C1034      H1036   1.087       .  S
C1037      H1039   1.087       .  S
C1037      C1038   1.343       .  D
C1038      H1040   1.087       .  S
C1041      H1043   1.087       .  S
C1041      C1042   1.345       .  D
C1042      H1044   1.085       .  S
C1045      H1047   1.084       .  S
C1045      C1046   1.351       .  D
C1046      H1048   1.086       .  S
C1049      H1051   1.083       .  S
C1049      C1050   1.351       .  D
C1050      H1052   1.085       .  S
C1053      H1055   1.085       .  S
C1053      C1054   1.344       .  D
C1054      H1056   1.088       .  S
C1057      H1059   1.086       .  S
C1057      C1058   1.348       .  D
C1058      H1060   1.080       .  S
C1061      H1063   1.086       .  S
C1061      C1062   1.345       .  D
C1062      H1064   1.087       .  S
C1065      H1067   1.088       .  S
C1065      C1066   1.340       .  D
C1066      H1068   1.086       .  S
C1069      H1071   1.086       .  S
C1069      C1070   1.339       .  D
C1070      H1072   1.087       .  S
C1073      H1075   1.084       .  S
C1073      C1074   1.344       .  D
C1074      H1076   1.086       .  S
C1077      H1079   1.088       .  S
C1077      C1078   1.352       .  D
C1078      H1080   1.083       .  S
C1081      H1083   1.087       .  S
C1081      C1082   1.346       .  D
C1082      H1084   1.086       .  S
C1085      H1087   1.084       .  S
C1085      C1086   1.350       .  D
C1086      H1088   1.085       .  S
C1089      H1091   1.086       .  S
C1089      C1090   1.345       .  D
C1090      H1092   1.088       .  S
C1093      H1095   1.087       .  S
C1093      C1094   1.353       .  D
C1094      H1096   1.084       .  S
C1097      H1099   1.087       .  S
C1097      C1098   1.345       .  D
C1098      H1100   1.087       .  S
C1101      H1103   1.085       .  S
C1101      C1102   1.348       .  D
C1102      H1104   1.088       .  S
C1105      H1107   1.082       .  S
C1105      C1106   1.348       .  D
C1106      H1108   1.087       .  S
C1109      H1111   1.086       .  S
C1109      C1110   1.345       .  D
C1110      H1112   1.087       .  S
C1113      H1115   1.082       .  S
C1113      C1114   1.350       .  D
C1114      H1116   1.087       .  S
C1117      H1119   1.086       .  S
C1117      C1118   1.344       .  D
C1118      H1120   1.086       .  S
C1121      H1123   1.086       .  S
C1121      C1122   1.348       .  D
C1122      H1124   1.088       .  S
C1125      H1127   1.087   1_565  S
C1125      C1126   1.344       .  D
C1126      H1128   1.086       .  S
C1129      H1131   1.085       .  S
C1129      C1130   1.349       .  D
C1130      H1132   1.086       .  S
C1133      H1135   1.086       .  S
C1133      C1134   1.344       .  D
C1134      H1136   1.086       .  S
C1137      H1139   1.085       .  S
C1137      C1138   1.353       .  D
C1138      H1140   1.084       .  S
C1141      H1143   1.087       .  S
C1141      C1142   1.342       .  D
C1142      H1144   1.085       .  S
C1145      H1147   1.086       .  S
C1145      C1146   1.348       .  D
C1146      H1148   1.088       .  S
C1149      H1151   1.086       .  S
C1149      C1150   1.345       .  D
C1150      H1152   1.087       .  S
C1153      H1155   1.077       .  S
C1153      C1154   1.349       .  D
C1154      H1156   1.084       .  S
C1157      H1159   1.087   1_565  S
C1157      C1158   1.346       .  D
C1158      H1160   1.085       .  S
C1161      H1163   1.086       .  S
C1161      C1162   1.344       .  D
C1162      H1164   1.086   1_565  S
C1165      H1167   1.086       .  S
C1165      C1166   1.349   1_655  D
C1166      H1168   1.086       .  S
C1169      H1171   1.085       .  S
C1169      C1170   1.343       .  D
C1170      H1172   1.086       .  S
C1173      H1175   1.084       .  S
C1173      C1174   1.351       .  D
C1174      H1176   1.087       .  S
C1177      H1179   1.087       .  S
C1177      C1178   1.348   1_655  D
C1178      H1180   1.085       .  S
C1181      H1183   1.085   1_565  S
C1181      C1182   1.344       .  D
C1182      H1184   1.087       .  S
C1185      H1187   1.085       .  S
C1185      C1186   1.350       .  D
C1186      H1188   1.087       .  S
C1189      H1191   1.087       .  S
C1189      C1190   1.351       .  D
C1190      H1192   1.086       .  S
C1193      H1195   1.087       .  S
C1193      C1194   1.345       .  D
C1194      H1196   1.087       .  S
C1197      H1199   1.080       .  S
C1197      C1198   1.357       .  D
C1198      H1200   1.085   1_556  S
C1201      H1203   1.087       .  S
C1201      C1202   1.347       .  D
C1202      H1204   1.085       .  S
C1205      H1207   1.084       .  S
C1205      C1206   1.349       .  D
C1206      H1208   1.086       .  S
C1209      H1211   1.085       .  S
C1209      C1210   1.347       .  D
C1210      H1212   1.087       .  S
C1213      H1215   1.086   1_554  S
C1213      C1214   1.343       .  D
C1214      H1216   1.088       .  S
C1217      H1219   1.080       .  S
C1217      C1218   1.346       .  D
C1218      H1220   1.087   1_554  S
C1221      H1223   1.085       .  S
C1221      C1222   1.343   1_545  D
C1222      H1224   1.088       .  S
C1225      H1227   1.083       .  S
C1225      C1226   1.346       .  D
C1226      H1228   1.086       .  S
C1229      H1231   1.087       .  S
C1229      C1230   1.345       .  D
C1230      H1232   1.086       .  S
C1233      H1235   1.086       .  S
C1233      C1234   1.350   1_565  D
C1234      H1236   1.082       .  S
C1237      H1239   1.086       .  S
C1237      C1238   1.346       .  D
C1238      H1240   1.087       .  S
C1241      H1243   1.084       .  S
C1241      C1242   1.350       .  D
C1242      H1244   1.084       .  S
C1245      H1247   1.085       .  S
C1245      C1246   1.346       .  D
C1246      H1248   1.087       .  S
C1249      H1251   1.087       .  S
C1249      C1250   1.345       .  D
C1250      H1252   1.085       .  S
C1253      H1255   1.083       .  S
C1253      C1254   1.345       .  D
C1254      H1256   1.084       .  S
C1257      H1259   1.087       .  S
C1257      C1258   1.348       .  D
C1258      H1260   1.080       .  S
C1261      H1263   1.086       .  S
C1261      C1262   1.348       .  D
C1262      H1264   1.085       .  S
C1265      H1267   1.087       .  S
C1265      C1266   1.346       .  D
C1266      H1268   1.087       .  S
C1269      H1271   1.086       .  S
C1269      C1270   1.345       .  D
C1270      H1272   1.087       .  S
C1273      H1275   1.088       .  S
C1273      C1274   1.346       .  D
C1274      H1276   1.085       .  S
C1277      H1279   1.081       .  S
C1277      C1278   1.347       .  D
C1278      H1280   1.086       .  S
C1281      H1283   1.088       .  S
C1281      C1282   1.347   1_455  D
C1282      H1284   1.087       .  S
C1285      H1287   1.081       .  S
C1285      C1286   1.350       .  D
C1286      H1288   1.088   1_655  S
C1289      H1291   1.087       .  S
C1289      C1290   1.350       .  D
C1290      H1292   1.083       .  S
C1293      H1295   1.085       .  S
C1293      C1294   1.350       .  D
C1294      H1296   1.082       .  S
C1297      H1299   1.085       .  S
C1297      C1298   1.343       .  D
C1298      H1300   1.088       .  S
C1301      H1303   1.085       .  S
C1301      C1302   1.352   1_554  D
C1302      H1304   1.083       .  S
C1305      H1307   1.088       .  S
C1305      C1306   1.341       .  D
C1306      H1308   1.088       .  S
C1309      H1311   1.086       .  S
C1309      C1310   1.347       .  D
C1310      H1312   1.085       .  S
C1313      H1315   1.085       .  S
C1313      C1314   1.349       .  D
C1314      H1316   1.087       .  S
C1317      H1319   1.088       .  S
C1317      C1318   1.344       .  D
C1318      H1320   1.086       .  S
C1321      H1323   1.089   1_455  S
C1321      C1322   1.348       .  D
C1322      H1324   1.086       .  S
C1325      H1327   1.084       .  S
C1325      C1326   1.354       .  D
C1326      H1328   1.085   1_455  S
C1329      H1331   1.087       .  S
C1329      C1330   1.349   1_554  D
C1330      H1332   1.086       .  S
C1333      H1335   1.087       .  S
C1333      C1334   1.346       .  D
C1334      H1336   1.089       .  S
C1337      H1339   1.085       .  S
C1337      C1338   1.349       .  D
C1338      H1340   1.084       .  S
C1341      H1343   1.085       .  S
C1341      C1342   1.346   1_554  D
C1342      H1344   1.086       .  S
