geometry optimzed in LAMMPS
_audit_creation_date              2020-11-30 
_audit_creation_method            'lammps2cif' 
_symmetry_space_group_name_H-M    'P1' 
_symmetry_Int_Tables_number       1 
_symmetry_cell_setting            triclinic 
loop_ 
_symmetry_equiv_pos_as_xyz 
  x,y,z 
_cell_length_a                    36.3635344 
_cell_length_b                    39.02314333291124 
_cell_length_c                    38.14772297226768 
_cell_angle_alpha                 90.65894487323175 
_cell_angle_beta                  90.51756229078856 
_cell_angle_gamma                 88.61795394323764 
loop_ 
_atom_site_label 
_atom_site_type_symbol 
_atom_site_fract_x 
_atom_site_fract_y 
_atom_site_fract_z 
_atom_site_charge 
Zr1        Zr  0.80804703  0.78540906  0.77926460     2.17500
O2          O  0.86927514  0.80896618  0.77395824    -0.51300
O3          O  0.79138387  0.80575864  0.83817148    -0.74500
O4          O  0.80628583  0.84688082  0.76787112    -0.81300
O5          O  0.85560262  0.70168328  0.80541208    -0.83000
O6          O  0.76084172  0.85796827  0.72774402    -0.78600
O7          O  0.85843734  0.75968630  0.81236459    -0.90300
O8          O  0.73537446  0.78463499  0.85088372    -0.76200
O9          O  0.74342218  0.79686446  0.77870358    -0.85700
O10         O  0.78211616  0.73608370  0.80489953    -0.85400
O11         O  0.79169904  0.79233110  0.71847194    -0.72200
O12         O  0.82648614  0.73705202  0.74309211    -0.84300
Zr13       Zr  0.71726366  0.70712907  0.70848118     2.26400
Zr14       Zr  0.72652195  0.80417344  0.71814000     2.06300
Zr15       Zr  0.80014311  0.68772821  0.76910393     2.10000
Zr16       Zr  0.71768146  0.74707972  0.80377422     1.78800
O17         O  0.84605350  0.65329300  0.73757371    -0.93100
O18         O  0.66292501  0.78246560  0.81519802    -0.40900
O19         O  0.73476260  0.69825976  0.76871531    -0.77600
O20         O  0.69967124  0.75532271  0.74455671    -0.96300
O21         O  0.74301634  0.75562714  0.68162174    -0.89600
O22         O  0.78170805  0.69442026  0.70874736    -0.92400
C23         C  0.76330886  0.80273481  0.85810835     1.01400
C24         C  0.87072939  0.72911968  0.81779987     1.14300
C25         C  0.78843740  0.86710119  0.74711290     1.05100
O26         O  0.68244607  0.84559173  0.74269850    -0.94600
O27         O  0.66547347  0.79154181  0.69158242    -0.90300
O28         O  0.66247098  0.73359680  0.68418008    -0.83400
C29         C  0.64870046  0.76397022  0.68214981     1.11700
O30         O  0.86599239  0.77024564  0.67252371    -0.96500
Zr31       Zr  0.80736206  0.74336034  0.68281959     1.88900
O32         O  0.72910051  0.68796200  0.64811610    -0.73200
O33         O  0.72717916  0.83305456  0.66186261    -0.52400
O34         O  0.80343027  0.78564854  0.63637806    -0.97100
O35         O  0.85805771  0.70432045  0.66719495    -0.54300
O36         O  0.78340448  0.71058395  0.63313223    -0.73700
C37         C  0.75500778  0.69265580  0.62604991     0.98700
O38         O  0.65543597  0.68411427  0.71117659    -0.62500
O39         O  0.80792630  0.65204607  0.82075493    -0.57300
O40         O  0.71910443  0.64716966  0.72199974    -0.94000
O41         O  0.76469177  0.63411134  0.76094322    -0.92400
O42         O  0.72185829  0.71090557  0.85528220    -0.92800
O43         O  0.66217781  0.71405797  0.81034097    -0.91600
C44         C  0.73673214  0.62591471  0.74155445     1.17500
H45         H  0.79066412  0.73312004  0.82873970     0.33400
H46         H  0.67327610  0.75797956  0.74549726     0.44300
H47         H  0.78723132  0.67381103  0.69535610     0.37800
H48         H  0.80479817  0.81116347  0.70874169     0.34300
H49         H  0.65927467  0.78102634  0.84082097     0.26100
H50         H  0.72496478  0.81447272  0.64413174     0.32000
H51         H  0.81524827  0.77425528  0.61591466     0.37900
H52         H  0.73414023  0.68948279  0.84686549     0.32400
H53         H  0.78279308  0.64536887  0.82716429     0.31300
H54         H  0.86996529  0.66241037  0.74543038     0.33000
H55         H  0.84664170  0.68181900  0.66319700     0.31900
H56         H  0.65109127  0.71305199  0.78656462     0.35900
H57         H  0.65278710  0.66874177  0.69058130     0.28600
H58         H  0.87022730  0.82842482  0.79081426     0.32900
H59         H  0.87581113  0.77534205  0.69626065     0.35700
H60         H  0.81994690  0.63061856  0.81199000     0.28300
H61         H  0.65498014  0.66898113  0.73181293     0.41200
H62         H  0.67821921  0.86253412  0.72387657     0.31300
H63         H  0.67073768  0.80624810  0.81134950     0.38900
H64         H  0.87246338  0.70147368  0.68916039     0.30700
H65         H  0.70332864  0.84578415  0.66059787     0.30800
H66         H  0.86968944  0.81953721  0.75049775     0.31100
C67         C  0.85973076  0.00412506  0.74734591    -0.02400
Zr68       Zr  0.78444982  0.21334763  0.71398215     2.17500
O69         O  0.83795000  0.18259299  0.68968536    -0.51300
O70         O  0.76857913  0.20484181  0.65279757    -0.74500
O71         O  0.78233991  0.15272804  0.72277782    -0.81300
O72         O  0.84029198  0.29547527  0.70910827    -0.83000
O73         O  0.73707921  0.13696518  0.75931559    -0.78600
O74         O  0.84437998  0.23753966  0.70543774    -0.90300
O75         O  0.71246754  0.22801051  0.64105019    -0.76200
O76         O  0.71982436  0.20486744  0.71396677    -0.85700
O77         O  0.75941114  0.26582046  0.69274371    -0.85400
O78         O  0.76981100  0.19956064  0.77365917    -0.72200
O79         O  0.80561226  0.25563933  0.75455063    -0.84300
Zr80       Zr  0.69879650  0.28903686  0.79171396     2.26400
Zr81       Zr  0.70396928  0.19228808  0.77375998     2.06300
Zr82       Zr  0.77957779  0.30847379  0.73396823     2.10000
Zr83       Zr  0.69457587  0.25819783  0.69373412     1.78800
O84         O  0.82295383  0.34397014  0.76597605    -0.93100
O85         O  0.64113629  0.22630960  0.67432142    -0.40900
O86         O  0.71412275  0.30232907  0.73294594    -0.77600
O87         O  0.67738579  0.24531716  0.75251175    -0.96300
O88         O  0.72383775  0.23641378  0.81334557    -0.89600
O89         O  0.76330930  0.29690772  0.79325028    -0.92400
C90         C  0.74133682  0.21091726  0.63211458     1.01400
C91         C  0.85822218  0.26727875  0.70276253     1.14300
C92         C  0.76580061  0.13020114  0.74039364     1.05100
O93         O  0.65614420  0.16178714  0.74213521    -0.94600
O94         O  0.64928147  0.20660624  0.81190114    -0.90300
O95         O  0.64902746  0.26416426  0.82145027    -0.83400
C96         C  0.63580143  0.23462854  0.82606324     1.11700
O97         O  0.84748375  0.21278972  0.81592948    -0.96500
Zr98       Zr  0.78848659  0.24357713  0.81329755     1.88900
O99         O  0.71523550  0.30151628  0.85179317    -0.73200
O100        O  0.70397706  0.15305241  0.82309674    -0.52400
O101        O  0.78806683  0.19766161  0.85601401    -0.97100
O102        O  0.83857387  0.27911960  0.83425302    -0.54300
O103        O  0.76574421  0.26941994  0.86646610    -0.73700
C104        C  0.73947030  0.29049975  0.87377160     0.98700
O105        O  0.63786058  0.31647151  0.79497929    -0.62500
O106        O  0.78339759  0.34345578  0.68166548    -0.57300
O107        O  0.70051695  0.35044928  0.78366826    -0.94000
O108        O  0.74625891  0.36231015  0.74588309    -0.92400
O109        O  0.69921971  0.30241955  0.64958598    -0.92800
O110        O  0.63824838  0.29316833  0.69150589    -0.91600
C111        C  0.71866138  0.37123113  0.76506524     1.17500
H112        H  0.76803218  0.27063341  0.66947639     0.33400
H113        H  0.65089066  0.24454229  0.75338707     0.44300
H114        H  0.76963723  0.31581757  0.80852829     0.37800
H115        H  0.78301399  0.17936938  0.78170008     0.34300
H116        H  0.65097931  0.20321001  0.66796574     0.26100
H117        H  0.73021386  0.14680467  0.82715411     0.32000
H118        H  0.76374505  0.19987479  0.86739232     0.37900
H119        H  0.68336783  0.29462944  0.62996940     0.32400
H120        H  0.79481604  0.32829446  0.66362678     0.31300
H121        H  0.83159687  0.36036160  0.74840639     0.33000
H122        H  0.84180277  0.27310315  0.85926070     0.31900
H123        H  0.63553474  0.30261630  0.71555030     0.35900
H124        H  0.63902549  0.33264165  0.81506430     0.28600
H125        H  0.82842921  0.16345577  0.67524353     0.32900
H126        H  0.85918232  0.21735185  0.79316480     0.35700
H127        H  0.75757013  0.34664359  0.67368460     0.28300
H128        H  0.63522022  0.33111082  0.77404402     0.41200
H129        H  0.66955335  0.14737591  0.72469901     0.31300
H130        H  0.62681487  0.22264366  0.69584825     0.38900
H131        H  0.82836415  0.30285386  0.83478413     0.30700
H132        H  0.69731823  0.16745519  0.84371949     0.30800
H133        H  0.85083126  0.17159006  0.70972503     0.31100
C134        C  0.64274531  0.50455806  0.75158633    -0.02400
C135        C  0.75140906  0.62321038  0.48568652    -0.02400
Zr136      Zr  0.70489025  0.80106305  0.20949773     2.17500
O137        O  0.64632159  0.83267646  0.20351261    -0.51300
O138        O  0.72013434  0.81689487  0.14960471    -0.74500
O139        O  0.70753082  0.86100847  0.22537570    -0.81300
O140        O  0.65287438  0.72021736  0.18648904    -0.83000
O141        O  0.75223316  0.87330012  0.26500077    -0.78600
O142        O  0.64982859  0.77845830  0.18329107    -0.90300
O143        O  0.77119584  0.78702646  0.13226466    -0.76200
O144        O  0.76944585  0.81025035  0.21011326    -0.85700
O145        O  0.73014971  0.75068091  0.18255999    -0.85400
O146        O  0.72097038  0.80840237  0.27050916    -0.72200
O147        O  0.68512756  0.75407661  0.24424779    -0.84300
Zr148      Zr  0.79298256  0.71991227  0.27855789     2.26400
Zr149      Zr  0.78663723  0.81717355  0.27124561     2.06300
Zr150      Zr  0.71138812  0.70347043  0.21714424     2.10000
Zr151      Zr  0.79477770  0.75899911  0.18407232     1.78800
O152        O  0.66606491  0.66541773  0.24105762    -0.93100
O153        O  0.84425902  0.79776451  0.17128097    -0.40900
O154        O  0.77640713  0.71175009  0.21825951    -0.77600
O155        O  0.81355098  0.76659549  0.24403241    -0.96300
O156        O  0.76774435  0.76983303  0.30619052    -0.89600
O157        O  0.72860496  0.71011010  0.27782681    -0.92400
C158        C  0.74417312  0.80778936  0.12657506     1.01400
C159        C  0.63678165  0.74877861  0.17738863     1.14300
C160        C  0.72417977  0.88209764  0.24562922     1.05100
O161        O  0.83005566  0.85350221  0.24194058    -0.94600
O162        O  0.84576559  0.80155304  0.30311933    -0.90300
O163        O  0.84358779  0.74417853  0.31073795    -0.83400
C164        C  0.85918509  0.77287885  0.31541538     1.11700
O165        O  0.64213327  0.78741968  0.30790472    -0.96500
Zr166      Zr  0.70326510  0.76067531  0.30462709     1.88900
O167        O  0.77619454  0.69891427  0.33552421    -0.73200
O168        O  0.79048807  0.84824655  0.32682109    -0.52400
O169        O  0.69923222  0.80467470  0.35031155    -0.97100
O170        O  0.65623810  0.72108837  0.32245692    -0.54300
O171        O  0.72829232  0.73141386  0.35590765    -0.73700
C172        C  0.75334507  0.70799871  0.35942744     0.98700
O173        O  0.84948995  0.68525328  0.28060544    -0.62500
O174        O  0.71308079  0.67327771  0.16083731    -0.57300
O175        O  0.79610056  0.66109038  0.25930332    -0.94000
O176        O  0.74653588  0.64835217  0.22521379    -0.92400
O177        O  0.79870562  0.72137206  0.13277180    -0.92800
O178        O  0.85088288  0.72375710  0.18089880    -0.91600
C179        C  0.77728793  0.64018912  0.24077747     1.17500
H180        H  0.72109838  0.74792770  0.15883636     0.33400
H181        H  0.84006604  0.76746459  0.24462679     0.44300
H182        H  0.72274581  0.68977647  0.29064536     0.37800
H183        H  0.70780779  0.82775831  0.28072455     0.34300
H184        H  0.85053510  0.79269566  0.14652387     0.26100
H185        H  0.80251719  0.86995132  0.32108055     0.32000
H186        H  0.72436284  0.80551952  0.36044425     0.37900
H187        H  0.81717912  0.73185404  0.11756382     0.32400
H188        H  0.69871420  0.68794419  0.14443328     0.31300
H189        H  0.64353750  0.67991609  0.24381003     0.33000
H190        H  0.66973776  0.70004216  0.32992016     0.31900
H191        H  0.85163154  0.71088307  0.20311946     0.35900
H192        H  0.86969342  0.69979824  0.27267930     0.28600
H193        H  0.65086253  0.85214751  0.18781603     0.32900
H194        H  0.63375106  0.78935796  0.28322321     0.35700
H195        H  0.73884361  0.67515118  0.15303452     0.28300
H196        H  0.85474781  0.68032012  0.30553768     0.41200
H197        H  0.84834212  0.85939404  0.26028812     0.31300
H198        H  0.83231068  0.82082265  0.17074138     0.38900
H199        H  0.64375800  0.71440062  0.30033854     0.30700
H200        H  0.76477380  0.85510401  0.33233616     0.30800
H201        H  0.64112208  0.84314338  0.22677813     0.31100
C202        C  0.75583782  0.87905254  0.99277119    -0.02400
C203        C  0.49612403  0.76047143  0.09767740    -0.02400
C204        C  0.36481161  0.00188286  0.74824743    -0.02400
C205        C  0.74269962  0.35376285  0.01328617    -0.02400
C206        C  0.24122388  0.62759299  0.98800222    -0.02400
C207        C  0.14320593  0.50800062  0.76295859    -0.02400
C208        C  0.74004190  0.14230419  0.49385284    -0.02400
C209        C  0.00407783  0.74735383  0.38962495    -0.02400
Zr210      Zr  0.29161254  0.70947012  0.20644495     2.17500
O211        O  0.35337832  0.68412588  0.20083099    -0.51300
O212        O  0.27369651  0.68834971  0.14854003    -0.74500
O213        O  0.29745125  0.64870322  0.22064214    -0.81300
O214        O  0.33535511  0.79432271  0.18268040    -0.83000
O215        O  0.25601411  0.63726697  0.26288855    -0.78600
O216        O  0.34105820  0.73635301  0.17762891    -0.90300
O217        O  0.21711540  0.71033717  0.13607012    -0.76200
O218        O  0.22832936  0.69652633  0.20919738    -0.85700
O219        O  0.26077532  0.75757110  0.18009807    -0.85400
O220        O  0.28096223  0.70360930  0.26797795    -0.72200
O221        O  0.30823454  0.75981612  0.23965817    -0.84300
Zr222      Zr  0.19997113  0.78775049  0.27798602     2.26400
Zr223      Zr  0.21701761  0.69031945  0.27061148     2.06300
Zr224      Zr  0.27639855  0.80797285  0.21362314     2.10000
Zr225      Zr  0.19729324  0.74533747  0.18429111     1.78800
O226        O  0.32190066  0.84975024  0.23121219    -0.93100
O227        O  0.14799005  0.70586449  0.17066962    -0.40900
O228        O  0.21214137  0.79566202  0.21714582    -0.77600
O229        O  0.18352941  0.73789586  0.24430032    -0.96300
O230        O  0.23183069  0.74058441  0.30480698    -0.89600
O231        O  0.26322731  0.80184177  0.27486807    -0.92400
C232        C  0.24551409  0.69210112  0.12831946     1.01400
C233        C  0.35276420  0.76648662  0.17274927     1.14300
C234        C  0.28331133  0.62852383  0.24284604     1.05100
O235        O  0.17690104  0.64666202  0.24663365    -0.94600
O236        O  0.15794394  0.70069404  0.30056599    -0.90300
O237        O  0.14845015  0.75860830  0.30234740    -0.83400
C238        C  0.13873191  0.72796113  0.30818677     1.11700
O239        O  0.35718631  0.72971307  0.30242991    -0.96500
Zr240      Zr  0.29496887  0.75431538  0.30067160     1.88900
O241        O  0.21339103  0.80593368  0.33737000    -0.73200
O242        O  0.22135615  0.66298221  0.32765359    -0.52400
O243        O  0.30333579  0.71371892  0.34827138    -0.97100
O244        O  0.34149027  0.79632605  0.31488670    -0.54300
O245        O  0.27025113  0.78534757  0.35113751    -0.73700
C246        C  0.24050162  0.80218921  0.35863248     0.98700
O247        O  0.14388286  0.82295435  0.28441725    -0.62500
O248        O  0.26503941  0.83499430  0.15717201    -0.57300
O249        O  0.19545452  0.84784416  0.26320190    -0.94000
O250        O  0.24161914  0.86294992  0.22724215    -0.92400
O251        O  0.19484466  0.78483508  0.13527108    -0.92800
O252        O  0.13651416  0.77268922  0.18000792    -0.91600
C253        C  0.21230843  0.87018138  0.24534317     1.17500
H254        H  0.26793889  0.75977152  0.15591593     0.33400
H255        H  0.15740369  0.73428617  0.24422442     0.44300
H256        H  0.26782949  0.82286785  0.28760530     0.37800
H257        H  0.29642231  0.68561715  0.27773038     0.34300
H258        H  0.16018230  0.68291672  0.16960475     0.26100
H259        H  0.24781086  0.65705546  0.33072967     0.32000
H260        H  0.31315449  0.72746567  0.36806642     0.37900
H261        H  0.19275504  0.77017251  0.11403113     0.32400
H262        H  0.28087593  0.85528639  0.15757899     0.31300
H263        H  0.31249409  0.85999892  0.25333797     0.33000
H264        H  0.34885404  0.79131251  0.33938936     0.31900
H265        H  0.13470326  0.78760603  0.20112818     0.35900
H266        H  0.12422228  0.81092116  0.27145546     0.28600
H267        H  0.35141650  0.66428251  0.18454145     0.32900
H268        H  0.36553263  0.72995047  0.27779951     0.35700
H269        H  0.27658956  0.81930288  0.13968678     0.28300
H270        H  0.13701714  0.82202712  0.30945151     0.41200
H271        H  0.15563265  0.65969078  0.23671570     0.31300
H272        H  0.13283192  0.70531200  0.19207309     0.38900
H273        H  0.32796284  0.81859922  0.31644204     0.30700
H274        H  0.21668307  0.68176448  0.34483287     0.30800
H275        H  0.35998208  0.67432836  0.22395012     0.31100
C276        C  0.24183529  0.87521314  0.49516415    -0.02400
C277        C  0.85900798  0.50785586  0.25163899    -0.02400
Zr278      Zr  0.77620314  0.29946523  0.21588008     2.17500
O279        O  0.78167039  0.34841208  0.17696215    -0.51300
O280        O  0.83456940  0.28537743  0.18686628    -0.74500
O281        O  0.79537031  0.35305153  0.24313399    -0.81300
O282        O  0.73916261  0.23996669  0.14614740    -0.83000
O283        O  0.78941703  0.35610325  0.30219949    -0.78600
O284        O  0.73757128  0.29493960  0.16436809    -0.90300
O285        O  0.86139129  0.24236104  0.21830271    -0.76200
O286        O  0.80722375  0.28411558  0.26891232    -0.85700
O287        O  0.78613476  0.23884526  0.20943351    -0.85400
O288        O  0.73565663  0.31640931  0.26281253    -0.72200
O289        O  0.71709529  0.27434154  0.20809020    -0.84300
Zr290      Zr  0.71723064  0.21490344  0.30142871     2.26400
Zr291      Zr  0.76606944  0.29899968  0.31658200     2.06300
Zr292      Zr  0.72698953  0.21326435  0.20296816     2.10000
Zr293      Zr  0.81763123  0.22401033  0.26204621     1.78800
O294        O  0.67231558  0.20626908  0.16650299    -0.93100
O295        O  0.87039565  0.24328778  0.29608856    -0.40900
O296        O  0.75867246  0.19788601  0.25561126    -0.77600
O297        O  0.77745701  0.23823424  0.31001938    -0.96300
O298        O  0.70688894  0.27491117  0.30739891    -0.89600
O299        O  0.68606815  0.23020881  0.24875240    -0.92400
C300        C  0.86101006  0.26372400  0.19289169     1.01400
C301        C  0.74041374  0.27223695  0.14003334     1.14300
C302        C  0.79826690  0.36909038  0.27259015     1.05100
O303        O  0.82067027  0.30996971  0.35203303    -0.94600
O304        O  0.75834439  0.26740385  0.37298001    -0.90300
O305        O  0.70692518  0.24131294  0.35775781    -0.83400
C306        C  0.73249760  0.24643480  0.37991052     1.11700
O307        O  0.66288477  0.34195739  0.22050286    -0.96500
Zr308      Zr  0.67689098  0.29065767  0.25431638     1.88900
O309        O  0.65261069  0.21866781  0.31705975    -0.73200
O310        O  0.72785620  0.33996554  0.34937709    -0.52400
O311        O  0.64984146  0.33716831  0.28932344    -0.97100
O312        O  0.62931429  0.28126821  0.21005986    -0.54300
O313        O  0.62930825  0.26564631  0.28893659    -0.73700
C314        C  0.62651809  0.24030683  0.30972435     0.98700
O315        O  0.74203945  0.16746588  0.33616360    -0.62500
O316        O  0.75896024  0.16764111  0.17038733    -0.57300
O317        O  0.69411175  0.16090892  0.28251664    -0.94000
O318        O  0.70340819  0.15746844  0.22377240    -0.92400
O319        O  0.84247136  0.17284107  0.23270225    -0.92800
O320        O  0.83561055  0.17816039  0.30202862    -0.91600
C321        C  0.69298486  0.14470612  0.25326507     1.17500
H322        H  0.79978629  0.23215807  0.18879760     0.33400
H323        H  0.78890347  0.22904883  0.33091301     0.44300
H324        H  0.66299754  0.21862865  0.24621540     0.37800
H325        H  0.73119059  0.34089743  0.26295380     0.34300
H326        H  0.86236065  0.24266012  0.32079841     0.26100
H327        H  0.71172950  0.32574793  0.36373842     0.32000
H328        H  0.65538313  0.33088928  0.31391660     0.37900
H329        H  0.82290605  0.15573834  0.23428918     0.32400
H330        H  0.77212338  0.17928123  0.15148118     0.31300
H331        H  0.65358401  0.19736050  0.18248081     0.33000
H332        H  0.61402348  0.26294703  0.21954872     0.31900
H333        H  0.81553522  0.16153850  0.30024822     0.35900
H334        H  0.75260395  0.15082679  0.31901995     0.28600
H335        H  0.80713145  0.35664662  0.17938290     0.32900
H336        H  0.68264569  0.34259361  0.20284599     0.35700
H337        H  0.77867997  0.15945114  0.18647176     0.28300
H338        H  0.76375062  0.17663758  0.34858766     0.41200
H339        H  0.82677493  0.28792307  0.36354906     0.31300
H340        H  0.88900092  0.22444624  0.29397109     0.38900
H341        H  0.64243208  0.27024880  0.19012292     0.30700
H342        H  0.74492774  0.35052041  0.36649857     0.30800
H343        H  0.76551413  0.36708825  0.18632475     0.31100
C344        C  0.62722103  0.00682762  0.24866572    -0.02400
C345        C  0.49702657  0.25606749  0.90646667    -0.02400
Zr346      Zr  0.20637107  0.29471665  0.71546705     2.17500
O347        O  0.14958153  0.32322819  0.69604254    -0.51300
O348        O  0.21930919  0.31314965  0.65662632    -0.74500
O349        O  0.20245655  0.35367372  0.73634607    -0.81300
O350        O  0.15665922  0.20869421  0.69764691    -0.83000
O351        O  0.25207988  0.36698864  0.77007715    -0.78600
O352        O  0.15027780  0.26656140  0.69858563    -0.90300
O353        O  0.27752952  0.29530382  0.64512868    -0.76200
O354        O  0.27033596  0.30666137  0.71569394    -0.85700
O355        O  0.23480504  0.24599520  0.68794632    -0.85400
O356        O  0.22263795  0.30275669  0.77626457    -0.72200
O357        O  0.18917585  0.24643212  0.74936764    -0.84300
Zr358      Zr  0.29930819  0.21664923  0.78533398     2.26400
Zr359      Zr  0.28782883  0.31309430  0.77629718     2.06300
Zr360      Zr  0.21913794  0.19753381  0.72254882     2.10000
Zr361      Zr  0.29882261  0.25702011  0.69017788     1.78800
O362        O  0.17914804  0.15201966  0.74073524    -0.93100
O363        O  0.35122296  0.29414263  0.68318873    -0.40900
O364        O  0.28351436  0.20860339  0.72457592    -0.77600
O365        O  0.31732348  0.26371617  0.74992318    -0.96300
O366        O  0.27073528  0.26572633  0.81158130    -0.89600
O367        O  0.23514739  0.20495731  0.78343391    -0.92400
C368        C  0.24753229  0.31119120  0.63695327     1.01400
C369        C  0.13771389  0.23667668  0.69249869     1.14300
C370        C  0.22090827  0.37457075  0.75538409     1.05100
O371        O  0.33055179  0.35005286  0.74686972    -0.94600
O372        O  0.34687619  0.30060851  0.80711580    -0.90300
O373        O  0.35331705  0.24260911  0.81117322    -0.83400
C374        C  0.36474899  0.27308731  0.81629175     1.11700
O375        O  0.14330198  0.27660958  0.80720643    -0.96500
Zr376      Zr  0.20655725  0.25452927  0.80928141     1.88900
O377        O  0.28613878  0.20627162  0.84689310    -0.73200
O378        O  0.28933493  0.34649262  0.83063397    -0.52400
O379        O  0.19555619  0.29921594  0.85335458    -0.97100
O380        O  0.16761101  0.20954190  0.83076599    -0.54300
O381        O  0.23353018  0.23449012  0.86281934    -0.73700
C382        C  0.26190804  0.21584660  0.86962053     0.98700
O383        O  0.35495379  0.18061261  0.78071652    -0.62500
O384        O  0.22376671  0.17233822  0.66393206    -0.57300
O385        O  0.29754150  0.15531658  0.77745182    -0.94000
O386        O  0.25799237  0.14532569  0.73199745    -0.92400
O387        O  0.29817937  0.22651907  0.63411627    -0.92800
O388        O  0.35249962  0.22014314  0.67898223    -0.91600
C389        C  0.28337147  0.13580588  0.75403633     1.17500
H390        H  0.22615056  0.24349185  0.66406992     0.33400
H391        H  0.34370430  0.26573112  0.75000503     0.44300
H392        H  0.22989799  0.18465710  0.79658686     0.37800
H393        H  0.20890798  0.32094724  0.78787127     0.34300
H394        H  0.37192356  0.28295503  0.69603967     0.26100
H395        H  0.29412438  0.32947045  0.84928205     0.32000
H396        H  0.17840169  0.28905765  0.87012024     0.37900
H397        H  0.31506628  0.23922420  0.61904741     0.32400
H398        H  0.20616116  0.18570987  0.64924928     0.31300
H399        H  0.17816417  0.13632078  0.72018470     0.33000
H400        H  0.14915904  0.20600908  0.81190316     0.31900
H401        H  0.35606729  0.20710696  0.70089738     0.35900
H402        H  0.37290594  0.19440071  0.76796684     0.28600
H403        H  0.15595098  0.34669397  0.68909829     0.32900
H404        H  0.14323258  0.29442089  0.78892363     0.35700
H405        H  0.24832558  0.17879173  0.65560672     0.28300
H406        H  0.36506992  0.17845762  0.80480765     0.41200
H407        H  0.35395909  0.33658921  0.74596067     0.31300
H408        H  0.35787696  0.29164347  0.65816119     0.38900
H409        H  0.15358361  0.22041951  0.85022651     0.30700
H410        H  0.31221946  0.35966369  0.82944600     0.30800
H411        H  0.13485654  0.32606235  0.71758958     0.31100
C412        C  0.99197958  0.25402925  0.62118113    -0.02400
C413        C  0.98866855  0.24629397  0.09903011    -0.02400
Zr414      Zr  0.04580134  0.04632184  0.03087805     2.17500
O415        O  0.06395757  0.09021947  0.07346153    -0.51300
O416        O  0.10414608  0.06770061  0.01070769    -0.74500
O417        O  0.06725341  0.02390163  0.08740337    -0.81300
O418        O  0.98667509  0.11319610  0.98151359    -0.83000
O419        O  0.06269324  0.96588130  0.08839694    -0.78600
O420        O  0.01591546  0.10195403  0.03329419    -0.90300
O421        O  0.12466634  0.03658063  0.96392745    -0.76200
O422        O  0.07490605  0.99410799  0.01187080    -0.85700
O423        O  0.04697507  0.05087954  0.96845490    -0.85400
O424        O  0.00728282  0.00176502  0.05189541    -0.72200
O425        O  0.98317990  0.05381978  0.01146734    -0.84300
Zr426      Zr  0.97718331  0.96140787  0.94906929     2.26400
Zr427      Zr  0.03585045  0.94901308  0.03130137     2.06300
Zr428      Zr  0.98442935  0.05787445  0.94895161     2.10000
Zr429      Zr  0.07587327  0.99839840  0.94941516     1.78800
O430        O  0.92703398  0.09005530  0.93964850    -0.93100
O431        O  0.12942927  0.96098982  0.95966314    -0.40900
O432        O  0.01420897  0.00631293  0.92815097    -0.77600
O433        O  0.03919320  0.95247319  0.96860681    -0.96300
O434        O  0.97371764  0.95629688  0.01100523    -0.89600
O435        O  0.94698134  0.01287148  0.96838854    -0.92400
C436        C  0.12763077  0.06057757  0.98671549     1.01400
C437        C  0.99824740  0.12191420  0.01242547     1.14300
C438        C  0.07077532  0.99486011  0.10274320     1.05100
O439        O  0.09415015  0.91711077  0.03350030    -0.94600
O440        O  0.02238291  0.89148181  0.00627672    -0.90300
O441        O  0.98155150  0.90196437  0.96226961    -0.83400
C442        C  0.00054500  0.88149757  0.98142235     1.11700
O443        O  0.93540790  0.04676076  0.08062899    -0.96500
Zr444      Zr  0.94576566  0.00869257  0.03046823     1.88900
O445        O  0.91347991  0.94806467  0.95650405    -0.73200
O446        O  0.00726434  0.91522327  0.07644827    -0.52400
O447        O  0.93160608  0.97607133  0.08251772    -0.97100
O448        O  0.89063334  0.04519749  0.02552923    -0.54300
O449        O  0.89864525  0.97160440  0.00940755    -0.73700
C450        C  0.89185563  0.95310043  0.98236114     0.98700
O451        O  0.98939532  0.92563137  0.89738134    -0.62500
O452        O  0.01361460  0.09295508  0.90533490    -0.57300
O453        O  0.95145301  0.97840351  0.89416404    -0.94000
O454        O  0.95351841  0.03655462  0.89468767    -0.92400
O455        O  0.09323844  0.02658141  0.89558769    -0.92800
O456        O  0.08323352  0.95933368  0.89956812    -0.91600
C457        C  0.94506187  0.00748545  0.88023859     1.17500
H458        H  0.05998875  0.07066547  0.96078104     0.33400
H459        H  0.04922735  0.93133495  0.95887223     0.44300
H460        H  0.92255391  0.01523326  0.95841789     0.37800
H461        H  0.00506293  0.00228895  0.07707099     0.34300
H462        H  0.13837490  0.96728612  0.98341178     0.26100
H463        H  0.02801565  0.90551382  0.09041224     0.32000
H464        H  0.90601540  0.96858735  0.07890310     0.37900
H465        H  0.09157309  0.05141342  0.90112666     0.32400
H466        H  0.02657463  0.07622233  0.88982247     0.31300
H467        H  0.91078580  0.08264554  0.95866337     0.33000
H468        H  0.87248507  0.03443731  0.04088227     0.31900
H469        H  0.05988940  0.96173838  0.88615855     0.35900
H470        H  0.01311103  0.91350488  0.90216540     0.28600
H471        H  0.08983978  0.08477886  0.08002715     0.32900
H472        H  0.95821806  0.06001909  0.08275414     0.35700
H473        H  0.99293215  0.10196598  0.89081146     0.28300
H474        H  0.97079292  0.90750894  0.89743881     0.41200
H475        H  0.09127358  0.90068996  0.05282241     0.31300
H476        H  0.11933645  0.93784171  0.96237855     0.38900
H477        H  0.88106509  0.04116744  0.00150250     0.30700
H478        H  0.99530017  0.93234808  0.09224232     0.30800
H479        H  0.04958074  0.08635629  0.09494010     0.31100
Zr480      Zr  0.20363444  0.20895368  0.21687036     2.17500
O481        O  0.22341017  0.15425301  0.19055672    -0.51300
O482        O  0.14226480  0.21484057  0.19184031    -0.74500
O483        O  0.17610341  0.16049720  0.24363523    -0.81300
O484        O  0.24188585  0.25837118  0.14092635    -0.83000
O485        O  0.19332594  0.16064387  0.30120324    -0.78600
O486        O  0.21249555  0.20964507  0.15522793    -0.90300
O487        O  0.12113895  0.26755017  0.20927328    -0.76200
O488        O  0.17321217  0.22999797  0.26794521    -0.85700
O489        O  0.19383742  0.26814997  0.20459326    -0.85400
O490        O  0.24518084  0.19695208  0.26438445    -0.72200
O491        O  0.26224218  0.23292447  0.20493839    -0.84300
Zr492      Zr  0.26297182  0.30225100  0.29269560     2.26400
Zr493      Zr  0.21536626  0.21982879  0.31601961     2.06300
Zr494      Zr  0.25206469  0.29315282  0.19494012     2.10000
Zr495      Zr  0.16241520  0.28890117  0.25495166     1.78800
O496        O  0.30525297  0.29812450  0.15723853    -0.93100
O497        O  0.10710247  0.27121935  0.28486881    -0.40900
O498        O  0.22097510  0.31476617  0.24578154    -0.77600
O499        O  0.20340135  0.27949409  0.30386904    -0.96300
O500        O  0.27397279  0.24323258  0.30412278    -0.89600
O501        O  0.29369130  0.28121167  0.24195456    -0.92400
C502        C  0.11903555  0.24003477  0.19058468     1.01400
C503        C  0.22699625  0.22938912  0.13307778     1.14300
C504        C  0.17950224  0.14600316  0.27342719     1.05100
O505        O  0.16200097  0.21149260  0.35272779    -0.94600
O506        O  0.22432814  0.25838325  0.36924027    -0.90300
O507        O  0.27155218  0.29099868  0.35337936    -0.83400
C508        C  0.24771493  0.28246067  0.37558647     1.11700
O509        O  0.31476915  0.16781259  0.22134254    -0.96500
Zr510      Zr  0.30308374  0.22169090  0.25264239     1.88900
O511        O  0.32718874  0.29958008  0.31079713    -0.73200
O512        O  0.25304944  0.18403240  0.35479512    -0.52400
O513        O  0.33076183  0.17654850  0.28846193    -0.97100
O514        O  0.35388219  0.22960059  0.21247833    -0.54300
O515        O  0.34744387  0.24734087  0.29093836    -0.73700
C516        C  0.35111279  0.27495643  0.30880023     0.98700
O517        O  0.23779434  0.35456999  0.31972679    -0.62500
O518        O  0.21606236  0.33227012  0.15810662    -0.57300
O519        O  0.28817081  0.35308861  0.27006195    -0.94000
O520        O  0.27965031  0.34999008  0.21086833    -0.92400
O521        O  0.14467210  0.34235426  0.22641256    -0.92800
O522        O  0.13706574  0.33485554  0.29205806    -0.91600
C523        C  0.29057472  0.36543461  0.23941288     1.17500
H524        H  0.17948858  0.27181138  0.18215033     0.33400
H525        H  0.19253686  0.29084408  0.32398645     0.44300
H526        H  0.31672495  0.29255394  0.23869301     0.37800
H527        H  0.24944884  0.17252700  0.26642103     0.34300
H528        H  0.08666710  0.28375301  0.27292048     0.26100
H529        H  0.25472716  0.16143618  0.34277043     0.32000
H530        H  0.35755360  0.17799885  0.28448820     0.37900
H531        H  0.11792320  0.34057523  0.22188977     0.32400
H532        H  0.19368779  0.33783430  0.17182566     0.31300
H533        H  0.32111685  0.27796911  0.16303556     0.33000
H534        H  0.37357520  0.21372226  0.22096166     0.31900
H535        H  0.14230183  0.32795459  0.31651081     0.35900
H536        H  0.22568829  0.36727303  0.30030086     0.28600
H537        H  0.20064692  0.14223514  0.18396565     0.32900
H538        H  0.30815520  0.17269644  0.19663289     0.35700
H539        H  0.22991528  0.35379667  0.15823161     0.28300
H540        H  0.21704067  0.34702511  0.33411902     0.41200
H541        H  0.14126958  0.22234037  0.33961818     0.31300
H542        H  0.10381496  0.24696391  0.27788033     0.38900
H543        H  0.36318760  0.25269005  0.21798560     0.30700
H544        H  0.27809886  0.19320456  0.35307677     0.30800
H545        H  0.23449949  0.14063853  0.20986341     0.31100
C546        C  0.12538299  0.00395373  0.25028550    -0.02400
Zr547      Zr  0.94220068  0.04545306  0.53048539     2.17500
O548        O  0.89151525  0.07774257  0.55788855    -0.51300
O549        O  0.96208648  0.10412342  0.54534581    -0.74500
O550        O  0.93005350  0.02751101  0.59033775    -0.81300
O551        O  0.89718895  0.05925731  0.44011520    -0.83000
O552        O  0.97745719  0.99312260  0.60895740    -0.78600
O553        O  0.88626667  0.05906258  0.49876726    -0.90300
O554        O  0.01654696  0.11602432  0.52105740    -0.76200
O555        O  0.00550381  0.04151855  0.54621806    -0.85700
O556        O  0.97245936  0.06610978  0.47997369    -0.85400
O557        O  0.95353752  0.98494100  0.54059361    -0.72200
O558        O  0.92474509  0.00947816  0.48149522    -0.84300
Zr559      Zr  0.03280835  0.96534548  0.45885529     2.26400
Zr560      Zr  0.01769205  0.98130827  0.55667169     2.06300
Zr561      Zr  0.95697644  0.02898018  0.43120962     2.10000
Zr562      Zr  0.03585657  0.06179165  0.49529370     1.78800
O563        O  0.91785198  0.99954482  0.38895990    -0.93100
O564        O  0.08207369  0.07450090  0.54006971    -0.40900
O565        O  0.02082529  0.02486684  0.44684769    -0.77600
O566        O  0.04959433  0.00306101  0.50676952    -0.96300
O567        O  0.00106012  0.94438475  0.50818842    -0.89600
O568        O  0.97004388  0.96918710  0.44138230    -0.92400
C569        C  0.98843184  0.12475874  0.53920103     1.01400
C570        C  0.87688832  0.06555912  0.46712816     1.14300
C571        C  0.94617317  0.00921177  0.61394135     1.05100
O572        O  0.05770978  0.00313936  0.60287418    -0.94600
O573        O  0.07984323  0.95299734  0.54814089    -0.90300
O574        O  0.08831095  0.94836765  0.48921201    -0.83400
C575        C  0.09946488  0.94501413  0.52079344     1.11700
O576        O  0.87464149  0.95356898  0.51183883    -0.96500
Zr577      Zr  0.93777836  0.94983035  0.49103304     1.88900
O578        O  0.01602460  0.90531043  0.44950998    -0.73200
O579        O  0.01339733  0.92599005  0.58507583    -0.52400
O580        O  0.91803005  0.90571218  0.53084245    -0.97100
O581        O  0.89910900  0.93998351  0.43956955    -0.54300
O582        O  0.96008262  0.89391149  0.47094976    -0.73700
C583        C  0.99004750  0.88446521  0.45592486     0.98700
O584        O  0.08173670  0.94231235  0.42105144    -0.62500
O585        O  0.95675765  0.08032931  0.39545308    -0.57300
O586        O  0.04276717  0.98275232  0.39918836    -0.94000
O587        O  0.99773271  0.01938360  0.37990118    -0.92400
O588        O  0.04245068  0.10431372  0.44972296    -0.92800
O589        O  0.09779033  0.06180866  0.47154050    -0.91600
C590        C  0.02791539  0.00170837  0.37554149     1.17500
H591        H  0.96495378  0.08949371  0.47515138     0.33400
H592        H  0.07568622  0.00402332  0.51097901     0.44300
H593        H  0.96573002  0.95527791  0.42070840     0.37800
H594        H  0.93826477  0.97555403  0.55841600     0.34300
H595        H  0.06857389  0.08689164  0.55894422     0.26100
H596        H  0.02450610  0.92946310  0.60859883     0.32000
H597        H  0.93784810  0.90405961  0.54873348     0.37900
H598        H  0.03464960  0.09255702  0.42784841     0.32400
H599        H  0.93344304  0.07961523  0.38188110     0.31300
H600        H  0.89556839  0.01443647  0.38657825     0.33000
H601        H  0.88092976  0.95928870  0.43967167     0.31900
H602        H  0.10013163  0.03995340  0.45820608     0.35900
H603        H  0.10397479  0.95572490  0.42626665     0.28600
H604        H  0.90104195  0.08663188  0.58054257     0.32900
H605        H  0.87275478  0.97595022  0.52427534     0.35700
H606        H  0.95317931  0.09967778  0.41217739     0.28300
H607        H  0.08768602  0.91887868  0.42943329     0.41200
H608        H  0.05388316  0.98786643  0.62299560     0.31300
H609        H  0.08885388  0.05206214  0.55044208     0.38900
H610        H  0.88470304  0.91963218  0.44537509     0.30700
H611        H  0.98683160  0.92356718  0.58960349     0.30800
H612        H  0.87315029  0.06065925  0.56424745     0.31100
C613        C  0.25465674  0.14740623  0.00555517    -0.02400
Zr614      Zr  0.45061055  0.04284093  0.96315449     2.17500
O615        O  0.41001192  0.07785186  0.92589865    -0.51300
O616        O  0.39512550  0.06273652  0.99226037    -0.74500
O617        O  0.43023285  0.01761758  0.90760510    -0.81300
O618        O  0.50272781  0.11571766  0.00457224    -0.83000
O619        O  0.43911475  0.96009496  0.90644919    -0.78600
O620        O  0.47078189  0.10030057  0.95568621    -0.90300
O621        O  0.38702908  0.04007090  0.04595592    -0.76200
O622        O  0.42937830  0.99090495  0.98636170    -0.85700
O623        O  0.45757391  0.04993341  0.02507199    -0.85400
O624        O  0.49295806  0.00098744  0.93875816    -0.72200
O625        O  0.51375387  0.05656903  0.97470521    -0.84300
Zr626      Zr  0.53853402  0.96748641  0.03816478     2.26400
Zr627      Zr  0.47166885  0.94844785  0.96254273     2.06300
Zr628      Zr  0.51972260  0.06297479  0.03700600     2.10000
Zr629      Zr  0.43607438  0.99800945  0.04859930     1.78800
O630        O  0.57754395  0.09318929  0.03834684    -0.93100
O631        O  0.38398179  0.96058587  0.04033242    -0.40900
O632        O  0.49853861  0.01087455  0.06155627    -0.77600
O633        O  0.47552874  0.95411813  0.02573759    -0.96300
O634        O  0.53481988  0.96020977  0.97623085    -0.89600
O635        O  0.56131270  0.01933301  0.01574903    -0.92400
C636        C  0.37918311  0.06163725  0.02202451     1.01400
C637        C  0.48634185  0.12265672  0.97513842     1.14300
C638        C  0.42827672  0.98840666  0.89209235     1.05100
O639        O  0.41527445  0.91601250  0.96134391    -0.94600
O640        O  0.48768405  0.89345432  0.98960018    -0.90300
O641        O  0.52934084  0.90728941  0.03190049    -0.83400
C642        C  0.50914021  0.88598343  0.01553199     1.11700
O643        O  0.55589929  0.04914399  0.90232968    -0.96500
Zr644      Zr  0.55541135  0.01305618  0.95398168     1.88900
O645        O  0.60009304  0.95503566  0.02003260    -0.73200
O646        O  0.50229279  0.91218798  0.91882626    -0.52400
O647        O  0.57725718  0.98757937  0.89927125    -0.97100
O648        O  0.60258037  0.05504793  0.96594000    -0.54300
O649        O  0.60669617  0.97430561  0.96465320    -0.73700
C650        C  0.61746226  0.95719006  0.99135124     0.98700
O651        O  0.56509575  0.93524012  0.08718999    -0.62500
O652        O  0.49275547  0.10372605  0.07889503    -0.57300
O653        O  0.55148734  0.99073129  0.09593867    -0.94000
O654        O  0.54733802  0.04878667  0.09446775    -0.92400
O655        O  0.42170895  0.02230914  0.10607092    -0.92800
O656        O  0.44112843  0.95931470  0.09821240    -0.91600
C657        C  0.55478054  0.02036780  0.11029302     1.17500
H658        H  0.44503885  0.06941391  0.03491000     0.33400
H659        H  0.46767717  0.93383286  0.03745424     0.44300
H660        H  0.58627893  0.02313135  0.02346340     0.37800
H661        H  0.49315217  0.00044289  0.91348700     0.34300
H662        H  0.37032853  0.96251733  0.06263591     0.26100
H663        H  0.48300122  0.89659729  0.91027574     0.32000
H664        H  0.55818001  0.97103168  0.89247881     0.37900
H665        H  0.44466252  0.03335580  0.11385013     0.32400
H666        H  0.48002127  0.08935530  0.09598490     0.31300
H667        H  0.57023936  0.11779597  0.03847392     0.33000
H668        H  0.59007064  0.07757427  0.96236116     0.31900
H669        H  0.46750142  0.95932418  0.10494018     0.35900
H670        H  0.54439573  0.92359949  0.09830869     0.28600
H671        H  0.38623411  0.06604055  0.92428728     0.32900
H672        H  0.53230265  0.06232198  0.90319283     0.35700
H673        H  0.51397287  0.11295135  0.09208852     0.28300
H674        H  0.58055627  0.91657750  0.07688258     0.41200
H675        H  0.39514427  0.93355619  0.96128219     0.31300
H676        H  0.36784539  0.97242750  0.02302908     0.38900
H677        H  0.61985421  0.05253359  0.94611127     0.30700
H678        H  0.50660294  0.92755777  0.89888655     0.30800
H679        H  0.41994976  0.07687855  0.90184540     0.31100
Zr680      Zr  0.53562283  0.04083592  0.45646711     2.17500
O681        O  0.59721633  0.04658666  0.43232055    -0.51300
O682        O  0.51516348  0.09815430  0.43889619    -0.74500
O683        O  0.53986292  0.03007462  0.39337970    -0.81300
O684        O  0.58324744  0.06131495  0.54399219    -0.83000
O685        O  0.49854333  0.98919969  0.37935224    -0.78600
O686        O  0.58461667  0.06957435  0.48503395    -0.90300
O687        O  0.46500195  0.11355462  0.47095014    -0.76200
O688        O  0.47176473  0.03942793  0.44354189    -0.85700
O689        O  0.50748965  0.06414733  0.50818565    -0.85400
O690        O  0.52484161  0.98118855  0.44645847    -0.72200
O691        O  0.55518466  0.00624665  0.50549320    -0.84300
Zr692      Zr  0.44916960  0.96782763  0.53241564     2.26400
Zr693      Zr  0.46007714  0.97977020  0.43295252     2.06300
Zr694      Zr  0.52566212  0.02916065  0.55729572     2.10000
Zr695      Zr  0.44347711  0.06169601  0.49570912     1.78800
O696        O  0.57024747  0.00077973  0.59591201    -0.93100
O697        O  0.39643558  0.07866554  0.45301914    -0.40900
O698        O  0.46136134  0.02682935  0.54408341    -0.77600
O699        O  0.42915519  0.00328302  0.48417120    -0.96300
O700        O  0.47845242  0.94408252  0.48180387    -0.89600
O701        O  0.51286584  0.96960497  0.54706062    -0.92400
C702        C  0.49036582  0.11985057  0.44929256     1.01400
C703        C  0.59779781  0.07355331  0.51582955     1.14300
C704        C  0.52559780  0.00888908  0.37150417     1.05100
O705        O  0.41805781  0.00694666  0.39106945    -0.94600
O706        O  0.40085653  0.94985291  0.44218877    -0.90300
O707        O  0.39748957  0.94547155  0.50126661    -0.83400
C708        C  0.38469430  0.94037570  0.47048630     1.11700
O709        O  0.60145748  0.94285462  0.46648244    -0.96500
Zr710      Zr  0.54226717  0.94700965  0.49581549     1.88900
O711        O  0.46625484  0.90908198  0.54754354    -0.73200
O712        O  0.46340719  0.92603143  0.39993539    -0.52400
O713        O  0.54444280  0.89852045  0.45502864    -0.97100
O714        O  0.59413805  0.93569430  0.53520424    -0.54300
O715        O  0.52393566  0.89743166  0.52815788    -0.73700
C716        C  0.49468973  0.88937981  0.54423105     0.98700
O717        O  0.40122300  0.95199724  0.57336171    -0.62500
O718        O  0.52501407  0.08081879  0.59378755    -0.57300
O719        O  0.43624160  0.98909835  0.59088444    -0.94000
O720        O  0.48431978  0.02055315  0.60996108    -0.92400
O721        O  0.43668384  0.10569256  0.54114420    -0.92800
O722        O  0.38256596  0.06357687  0.52165906    -0.91600
C723        C  0.45270100  0.00618794  0.61490318     1.17500
H724        H  0.51490311  0.08745022  0.51240689     0.33400
H725        H  0.40280203  0.00365602  0.48094512     0.44300
H726        H  0.51851821  0.95619843  0.56764159     0.37800
H727        H  0.53965584  0.97241281  0.42736421     0.34300
H728        H  0.39382822  0.10387608  0.45567336     0.26100
H729        H  0.45830002  0.90812533  0.41729752     0.32000
H730        H  0.53752755  0.90828270  0.43198714     0.37900
H731        H  0.45969813  0.10394148  0.55512878     0.32400
H732        H  0.54771170  0.07894625  0.60823473     0.31300
H733        H  0.57644953  0.01837655  0.61376079     0.33000
H734        H  0.60022206  0.91103732  0.53168972     0.31900
H735        H  0.38479699  0.04814743  0.54202560     0.35900
H736        H  0.37770705  0.94966280  0.56041674     0.28600
H737        H  0.59489043  0.06315515  0.41289276     0.32900
H738        H  0.61184665  0.96597130  0.46918827     0.35700
H739        H  0.52960061  0.09975269  0.57745731     0.28300
H740        H  0.40777580  0.92868178  0.58165754     0.41200
H741        H  0.39463944  0.01006043  0.40389304     0.31300
H742        H  0.40819279  0.07514288  0.42991094     0.38900
H743        H  0.58375012  0.93724339  0.55907391     0.30700
H744        H  0.44142585  0.92667392  0.38442597     0.30800
H745        H  0.60359795  0.02426272  0.42104923     0.31100
C746        C  0.48855865  0.25565505  0.38633858    -0.02400
Zr747      Zr  0.95344008  0.45918705  0.04377456     2.17500
O748        O  0.94597207  0.42263482  0.09468083    -0.51300
O749        O  0.89254154  0.43923432  0.02846896    -0.74500
O750        O  0.92896228  0.48697586  0.09638791    -0.81300
O751        O  0.00440417  0.38580017  0.99574276    -0.83000
O752        O  0.94088589  0.54381870  0.09707593    -0.78600
O753        O  0.97618248  0.40129140  0.04673429    -0.90300
O754        O  0.87165909  0.46515870  0.97900623    -0.76200
O755        O  0.92540405  0.51052848  0.02271500    -0.85700
O756        O  0.94864359  0.44911147  0.98196944    -0.85400
O757        O  0.99480305  0.50321854  0.06161480    -0.72200
O758        O  0.01461351  0.44747264  0.02276742    -0.84300
Zr759      Zr  0.02188184  0.53398888  0.95690778     2.26400
Zr760      Zr  0.96713248  0.55522763  0.03888193     2.06300
Zr761      Zr  0.01003828  0.43866970  0.96035119     2.10000
Zr762      Zr  0.92095491  0.50101799  0.96088161     1.78800
O763        O  0.06198658  0.39918870  0.95103152    -0.93100
O764        O  0.86748859  0.53856752  0.97112532    -0.40900
O765        O  0.98158601  0.49004070  0.93827759    -0.77600
O766        O  0.96081568  0.54683691  0.97662796    -0.96300
O767        O  0.02803391  0.54361656  0.01822462    -0.89600
O768        O  0.05073818  0.48291490  0.97753787    -0.92400
C769        C  0.86837055  0.44432475  0.00430075     1.01400
C770        C  0.99231572  0.37928529  0.02674967     1.14300
C771        C  0.92854000  0.51656627  0.11126184     1.05100
O772        O  0.90957910  0.58838390  0.03932631    -0.94600
O773        O  0.98293863  0.60905876  0.00834733    -0.90300
O774        O  0.02630417  0.59358934  0.96842884    -0.83400
C775        C  0.00596783  0.61598727  0.98384926     1.11700
O776        O  0.06569253  0.45535741  0.08990637    -0.96500
Zr777      Zr  0.05531937  0.49185593  0.03922206     1.88900
O778        O  0.08556349  0.54724235  0.96442788    -0.73200
O779        O  0.99526032  0.59192821  0.08312808    -0.52400
O780        O  0.07624230  0.52241669  0.09145549    -0.97100
O781        O  0.10815393  0.45340204  0.02898902    -0.54300
O782        O  0.10180742  0.53003970  0.01901823    -0.73700
C783        C  0.10780805  0.54601218  0.99053736     0.98700
O784        O  0.00556882  0.56504923  0.90366206    -0.62500
O785        O  0.97432258  0.40547715  0.91834649    -0.57300
O786        O  0.05094529  0.51238469  0.90514889    -0.94000
O787        O  0.04263658  0.45475088  0.90462181    -0.92400
O788        O  0.90510443  0.46813849  0.90846137    -0.92800
O789        O  0.90566495  0.53638716  0.91034957    -0.91600
C790        C  0.05464455  0.48279813  0.89094040     1.17500
H791        H  0.93414950  0.42936122  0.97629460     0.33400
H792        H  0.95138477  0.56758277  0.96589727     0.44300
H793        H  0.07461384  0.47926071  0.96709026     0.37800
H794        H  0.99696239  0.50424589  0.08683620     0.34300
H795        H  0.84770966  0.52889932  0.95629292     0.26100
H796        H  0.01829126  0.59958963  0.07236493     0.32000
H797        H  0.05489071  0.53695369  0.09870670     0.37900
H798        H  0.92892335  0.46232966  0.89723698     0.32400
H799        H  0.99293035  0.39477766  0.90261411     0.31300
H800        H  0.08395774  0.41298800  0.95603568     0.33000
H801        H  0.12517146  0.45794617  0.04882089     0.31900
H802        H  0.92699969  0.55126636  0.90737809     0.35900
H803        H  0.99471823  0.54782222  0.88762628     0.28600
H804        H  0.91952926  0.42375305  0.10071939     0.32900
H805        H  0.04149684  0.44517761  0.09426078     0.35700
H806        H  0.96493769  0.38615838  0.93199050     0.28300
H807        H  0.98432645  0.57996389  0.91033281     0.41200
H808        H  0.90337660  0.59171044  0.01425198     0.31300
H809        H  0.85991363  0.53386378  0.99543434     0.38900
H810        H  0.12078179  0.46267292  0.00840088     0.30700
H811        H  0.97913721  0.61273061  0.08397791     0.30800
H812        H  0.95889727  0.43377403  0.11457146     0.31100
Zr813      Zr  0.55037754  0.47057352  0.96078962     2.17500
O814        O  0.58441279  0.43018265  0.92299151    -0.51300
O815        O  0.60657970  0.45060676  0.98926125    -0.74500
O816        O  0.57268288  0.49540906  0.90629208    -0.81300
O817        O  0.48943205  0.40223769  0.00066274    -0.83000
O818        O  0.56567462  0.55333136  0.90624143    -0.78600
O819        O  0.52386426  0.41470076  0.95320932    -0.90300
O820        O  0.61450791  0.47183167  0.04414395    -0.76200
O821        O  0.57381024  0.52211508  0.98470851    -0.85700
O822        O  0.54357782  0.46412731  0.02264853    -0.85400
O823        O  0.51076186  0.51454513  0.93649927    -0.72200
O824        O  0.48679998  0.46116626  0.97238147    -0.84300
Zr825      Zr  0.46495767  0.55284767  0.03570904     2.26400
Zr826      Zr  0.53358253  0.56664548  0.96182661     2.06300
Zr827      Zr  0.48016193  0.45635481  0.03436915     2.10000
Zr828      Zr  0.56722157  0.51593641  0.04657060     1.78800
O829        O  0.41997320  0.43044716  0.03685732    -0.93100
O830        O  0.62078034  0.54996042  0.03406278    -0.40900
O831        O  0.50364237  0.50800792  0.05916898    -0.77600
O832        O  0.52922650  0.56170766  0.02470957    -0.96300
O833        O  0.46964503  0.55802284  0.97371580    -0.89600
O834        O  0.44095151  0.50112459  0.01185074    -0.92400
C835        C  0.62270924  0.45097689  0.01927494     1.01400
C836        C  0.50482147  0.39405663  0.97117405     1.14300
C837        C  0.57557085  0.52469680  0.89147262     1.05100
O838        O  0.59167319  0.59634746  0.96327898    -0.94600
O839        O  0.51997610  0.62286245  0.98920891    -0.90300
O840        O  0.47965690  0.61272385  0.03294082    -0.83400
C841        C  0.49963122  0.63252087  0.01515683     1.11700
O842        O  0.44783149  0.46947009  0.89722313    -0.96500
Zr843      Zr  0.44794754  0.50529286  0.94989401     1.88900
O844        O  0.40432885  0.56678464  0.01188143    -0.73200
O845        O  0.50571248  0.60298684  0.91686344    -0.52400
O846        O  0.43358028  0.53758216  0.89705255    -0.97100
O847        O  0.40122596  0.46153509  0.95120332    -0.54300
O848        O  0.39349369  0.53847157  0.96073507    -0.73700
C849        C  0.38439646  0.55945622  0.98508973     0.98700
O850        O  0.43494460  0.58770275  0.08123623    -0.62500
O851        O  0.50483655  0.41381835  0.07507059    -0.57300
O852        O  0.45058110  0.53307457  0.09455536    -0.94000
O853        O  0.45531664  0.47500057  0.09181517    -0.92400
O854        O  0.58154316  0.49245065  0.10406687    -0.92800
O855        O  0.56986898  0.55530188  0.09646071    -0.91600
C856        C  0.44741464  0.50341540  0.10827441     1.17500
H857        H  0.55558172  0.44365207  0.03150756     0.33400
H858        H  0.53842631  0.58165347  0.03665243     0.44300
H859        H  0.41569717  0.49809921  0.01856446     0.37800
H860        H  0.51056300  0.51497195  0.91124760     0.34300
H861        H  0.63236450  0.55432366  0.05721872     0.26100
H862        H  0.49581842  0.58670577  0.89926880     0.32000
H863        H  0.40836685  0.53086941  0.89032701     0.37900
H864        H  0.56341492  0.47422953  0.10715207     0.32400
H865        H  0.51700131  0.42736953  0.09374792     0.31300
H866        H  0.42520110  0.40626914  0.04317578     0.33000
H867        H  0.38221372  0.47053329  0.96752593     0.31900
H868        H  0.54421403  0.55714828  0.10491812     0.35900
H869        H  0.45453781  0.60137628  0.09241025     0.28600
H870        H  0.60985132  0.43862002  0.92202644     0.32900
H871        H  0.47198262  0.45722189  0.89782642     0.35700
H872        H  0.48293317  0.40446301  0.08645840     0.28300
H873        H  0.41908714  0.60467898  0.06883543     0.41200
H874        H  0.59465774  0.60386950  0.98799709     0.31300
H875        H  0.63820269  0.53396304  0.02205449     0.38900
H876        H  0.41310136  0.44209041  0.96375254     0.30700
H877        H  0.48357631  0.61346793  0.92795439     0.30800
H878        H  0.57454854  0.43338109  0.89897490     0.31100
Zr879      Zr  0.95554216  0.54234181  0.47147731     2.17500
O880        O  0.91164854  0.58819695  0.45566275    -0.51300
O881        O  0.93342216  0.52552935  0.41249751    -0.74500
O882        O  0.98089930  0.59384994  0.44853001    -0.81300
O883        O  0.88180637  0.49654333  0.51989755    -0.83000
O884        O  0.04337839  0.59066574  0.45083725    -0.78600
O885        O  0.90234899  0.54903929  0.50846057    -0.90300
O886        O  0.96389243  0.47727718  0.39506506    -0.76200
O887        O  0.00847369  0.51746089  0.44441790    -0.85700
O888        O  0.94469372  0.48231637  0.47394046    -0.85400
O889        O  0.00725704  0.56162284  0.50591621    -0.72200
O890        O  0.94998094  0.52813730  0.53234831    -0.84300
Zr891      Zr  0.04631685  0.46432867  0.54484497     2.26400
Zr892      Zr  0.06069954  0.53504042  0.47901106     2.06300
Zr893      Zr  0.94165099  0.46730542  0.53524338     2.10000
Zr894      Zr  0.99779574  0.45767719  0.44742714     1.78800
O895        O  0.91381322  0.47001701  0.59305656    -0.93100
O896        O  0.04147320  0.45459123  0.39916926    -0.40900
O897        O  0.99590285  0.44322884  0.50900297    -0.77600
O898        O  0.04910931  0.47489692  0.48230796    -0.96300
O899        O  0.05568471  0.52403025  0.54098862    -0.89600
O900        O  0.99202378  0.48763088  0.57104995    -0.92400
C901        C  0.94146010  0.50252834  0.38902080     1.01400
C902        C  0.87605686  0.52825757  0.51161730     1.14300
C903        C  0.01246649  0.60628502  0.44342578     1.05100
O904        O  0.09094209  0.53885922  0.42256442    -0.94600
O905        O  0.11817845  0.49788931  0.48043627    -0.90300
O906        O  0.10607418  0.45605603  0.51921059    -0.83400
C907        C  0.12675386  0.46971853  0.49671099     1.11700
O908        O  0.96788287  0.60308770  0.56745148    -0.96500
Zr909      Zr  0.00077437  0.54798955  0.56667717     1.88900
O910        O  0.06334609  0.48487749  0.60482382    -0.73200
O911        O  0.10522172  0.57281055  0.50645432    -0.52400
O912        O  0.04169969  0.59515664  0.57917914    -0.97100
O913        O  0.95477838  0.55281909  0.61271515    -0.54300
O914        O  0.03543981  0.53493992  0.61979386    -0.73700
C915        C  0.05721997  0.50971852  0.62685525     0.98700
O916        O  0.09270735  0.42797689  0.57407704    -0.62500
O917        O  0.89593758  0.42541053  0.51820918    -0.57300
O918        O  0.02600882  0.40790147  0.55862882    -0.94000
O919        O  0.96375214  0.40922111  0.55566331    -0.92400
O920        O  0.95341661  0.41305038  0.43623619    -0.92800
O921        O  0.02811494  0.40177499  0.44006592    -0.91600
C922        C  0.99509830  0.39350992  0.56174182     1.17500
H923        H  0.92251369  0.47627768  0.46145115     0.33400
H924        H  0.06726287  0.46078773  0.47053575     0.44300
H925        H  0.98973430  0.48050193  0.59509597     0.37800
H926        H  0.00882554  0.58623935  0.50637473     0.34300
H927        H  0.03487353  0.47432584  0.38409811     0.26100
H928        H  0.12957012  0.56252713  0.50056046     0.32000
H929        H  0.05659585  0.59720278  0.55775082     0.37900
H930        H  0.94969000  0.40255239  0.45938874     0.32400
H931        H  0.91005354  0.40442089  0.51138934     0.31300
H932        H  0.91931764  0.44725387  0.60331418     0.33000
H933        H  0.96703220  0.54413698  0.63422790     0.31900
H934        H  0.03095287  0.39290566  0.46418172     0.35900
H935        H  0.11395450  0.44253421  0.57978951     0.28600
H936        H  0.91559032  0.59373385  0.43071816     0.32900
H937        H  0.94601183  0.59959163  0.55229232     0.35700
H938        H  0.88383804  0.41944936  0.54039871     0.28300
H939        H  0.08222748  0.42361950  0.59735573     0.41200
H940        H  0.07212170  0.53178260  0.40519718     0.31300
H941        H  0.06556139  0.46056473  0.40952708     0.38900
H942        H  0.93655485  0.53524964  0.60659089     0.30700
H943        H  0.10365989  0.59414016  0.49266615     0.30800
H944        H  0.91838192  0.60894038  0.46925032     0.31100
C945        C  0.25690064  0.37739365  0.49900035    -0.02400
Zr946      Zr  0.45334636  0.46732868  0.46874631     2.17500
O947        O  0.40035419  0.43980781  0.44172729    -0.51300
O948        O  0.47131746  0.40744187  0.45747695    -0.74500
O949        O  0.44330596  0.48159763  0.40657860    -0.81300
O950        O  0.41699777  0.44619865  0.55753512    -0.83000
O951        O  0.48870655  0.51501203  0.38708005    -0.78600
O952        O  0.39914897  0.46562936  0.50451419    -0.90300
O953        O  0.53206448  0.39916012  0.46925704    -0.76200
O954        O  0.51610867  0.46913729  0.45260218    -0.85700
O955        O  0.48663378  0.44496651  0.51840821    -0.85400
O956        O  0.46274301  0.52685206  0.45728865    -0.72200
O957        O  0.43822007  0.50310605  0.51875315    -0.84300
Zr958      Zr  0.54532178  0.54293118  0.54087686     2.26400
Zr959      Zr  0.52609538  0.52845142  0.44121567     2.06300
Zr960      Zr  0.47216811  0.48108500  0.56834213     2.10000
Zr961      Zr  0.54954607  0.44841924  0.50273766     1.78800
O962        O  0.42952308  0.50880047  0.60919818    -0.93100
O963        O  0.60129099  0.43935087  0.46328644    -0.40900
O964        O  0.53548371  0.48366392  0.55270506    -0.77600
O965        O  0.56092446  0.50658722  0.49101834    -0.96300
O966        O  0.51226709  0.56523489  0.49121718    -0.89600
O967        O  0.48266900  0.54058756  0.55759022    -0.92400
C968        C  0.50120373  0.38915005  0.45737206     1.01400
C969        C  0.39435645  0.44706536  0.53132878     1.14300
C970        C  0.45875267  0.49813430  0.38186461     1.05100
O971        O  0.56736976  0.50393737  0.39711429    -0.94600
O972        O  0.58490621  0.55780610  0.44817709    -0.90300
O973        O  0.59586793  0.56267625  0.50696712    -0.83400
C974        C  0.60492455  0.56590850  0.47493774     1.11700
O975        O  0.38417353  0.56045844  0.49320537    -0.96500
Zr976      Zr  0.44952470  0.56215590  0.50780834     1.88900
O977        O  0.52661171  0.60152197  0.55600321    -0.73200
O978        O  0.51556941  0.58177883  0.40974258    -0.52400
O979        O  0.43209588  0.60140921  0.46096381    -0.97100
O980        O  0.41380582  0.58400056  0.55743468    -0.54300
O981        O  0.47388630  0.61631284  0.52731505    -0.73700
C982        C  0.50129766  0.62327247  0.54711556     0.98700
O983        O  0.59931766  0.55916357  0.57538385    -0.62500
O984        O  0.47662181  0.43074553  0.60550824    -0.57300
O985        O  0.55727520  0.52892927  0.60245039    -0.94000
O986        O  0.51562303  0.48980199  0.61876230    -0.92400
O987        O  0.55623319  0.39826875  0.53986497    -0.92800
O988        O  0.60829524  0.44747185  0.53389347    -0.91600
C989        C  0.54386761  0.50868180  0.62513219     1.17500
H990        H  0.48014878  0.42161226  0.52309989     0.33400
H991        H  0.58689877  0.50563945  0.48624765     0.44300
H992        H  0.47809722  0.55436345  0.57838250     0.37800
H993        H  0.44691078  0.53548752  0.43882121     0.34300
H994        H  0.60350320  0.41419962  0.46004224     0.26100
H995        H  0.52723084  0.59957323  0.42451196     0.32000
H996        H  0.45161953  0.61865476  0.46083353     0.37900
H997        H  0.53781263  0.40198668  0.55855767     0.32400
H998        H  0.45393383  0.43171397  0.61968057     0.31300
H999        H  0.44015313  0.50395605  0.63265836     0.33000
H1000       H  0.39710804  0.56532592  0.56345949     0.31900
H1001       H  0.61115725  0.47127755  0.54257085     0.35900
H1002       H  0.62048353  0.54562761  0.56597190     0.28600
H1003       H  0.40951924  0.42739401  0.42064315     0.32900
H1004       H  0.37538144  0.53932330  0.50416488     0.35700
H1005       H  0.47341597  0.41093847  0.58941373     0.28300
H1006       H  0.60418223  0.58330227  0.56957084     0.41200
H1007       H  0.59202240  0.50329940  0.40834274     0.31300
H1008       H  0.59228880  0.44787982  0.44036222     0.38900
H1009       H  0.39753637  0.60233703  0.54773854     0.30700
H1010       H  0.53147624  0.57955000  0.38886796     0.30800
H1011       H  0.38415463  0.45853452  0.43270714     0.31100
C1012       C  0.37005040  0.49565215  0.24595320    -0.02400
C1013       C  0.00228385  0.74789789  0.90873961    -0.02400
Zr1014     Zr  0.19385769  0.72689620  0.78131398     2.17500
O1015       O  0.13287174  0.70241537  0.77569504    -0.51300
O1016       O  0.20932985  0.70575650  0.83916440    -0.74500
O1017       O  0.19672396  0.66619820  0.77205571    -0.81300
O1018       O  0.14390447  0.80933803  0.80860282    -0.83000
O1019       O  0.24452467  0.65023014  0.73735636    -0.78600
O1020       O  0.14345005  0.75118435  0.81289916    -0.90300
O1021       O  0.26049715  0.73271877  0.85819536    -0.76200
O1022       O  0.25825686  0.71594847  0.78497243    -0.85700
O1023       O  0.21676980  0.77742225  0.80842903    -0.85400
O1024       O  0.21202611  0.71507235  0.72227700    -0.72200
O1025       O  0.17421320  0.77350079  0.74487685    -0.84300
Zr1026     Zr  0.28295064  0.80116126  0.71492594     2.26400
Zr1027     Zr  0.27759351  0.70475240  0.72561535     2.06300
Zr1028     Zr  0.19880846  0.82439243  0.77140489     2.10000
Zr1029     Zr  0.28119297  0.76726658  0.81087577     1.78800
O1030       O  0.15096526  0.85808759  0.74166422    -0.93100
O1031       O  0.33520600  0.73394354  0.82954296    -0.40900
O1032       O  0.26396565  0.81385685  0.77373674    -0.77600
O1033       O  0.30167149  0.75535842  0.75263606    -0.96300
O1034       O  0.25929077  0.75107671  0.68810793    -0.89600
O1035       O  0.21826545  0.81285847  0.71223428    -0.92400
C1036       C  0.23447732  0.71173053  0.86204143     1.01400
C1037       C  0.13031937  0.78098513  0.82016764     1.14300
C1038       C  0.21547935  0.64337111  0.75532945     1.05100
O1039       O  0.32251605  0.66639876  0.75343106    -0.94600
O1040       O  0.33814107  0.71985956  0.69834625    -0.90300
O1041       O  0.33848593  0.77753229  0.68953173    -0.83400
C1042       C  0.35386355  0.74768617  0.68807975     1.11700
O1043       O  0.13323666  0.73849281  0.68279635    -0.96500
Zr1044     Zr  0.19460496  0.76213962  0.68620664     1.88900
O1045       O  0.27393898  0.81380250  0.65336744    -0.73200
O1046       O  0.27962647  0.67267308  0.67049161    -0.52400
O1047       O  0.19333371  0.71474441  0.64416778    -0.97100
O1048       O  0.14891220  0.80105837  0.65997397    -0.54300
O1049       O  0.22262915  0.78629807  0.63529665    -0.73700
C1050       C  0.25022855  0.80520414  0.62991877     0.98700
O1051       O  0.33995725  0.82743382  0.73425087    -0.62500
O1052       O  0.19651510  0.86454849  0.82074000    -0.57300
O1053       O  0.27367645  0.86207992  0.71343597    -0.94000
O1054       O  0.23864751  0.87586103  0.76071590    -0.92400
O1055       O  0.27222782  0.80612368  0.86070537    -0.92800
O1056       O  0.33575938  0.80169477  0.81838443    -0.91600
C1057       C  0.26324120  0.88318091  0.73742359     1.17500
H1058       H  0.20728474  0.78063415  0.83184711     0.33400
H1059       H  0.32814280  0.75349404  0.75408989     0.44300
H1060       H  0.21266004  0.83227426  0.69749480     0.37800
H1061       H  0.19963706  0.69537500  0.71282519     0.34300
H1062       H  0.33545988  0.73598696  0.85544261     0.26100
H1063       H  0.25438237  0.66416285  0.66719797     0.32000
H1064       H  0.18427391  0.72517375  0.62209911     0.37900
H1065       H  0.28642129  0.79538632  0.88012540     0.32400
H1066       H  0.17148453  0.87507588  0.81972219     0.31300
H1067       H  0.16430217  0.87221835  0.72479149     0.33000
H1068       H  0.16290391  0.82037153  0.65069716     0.31900
H1069       H  0.32651129  0.82576752  0.81834285     0.35900
H1070       H  0.33282531  0.84054457  0.75558613     0.28600
H1071       H  0.13198416  0.68403641  0.79334225     0.32900
H1072       H  0.12132779  0.74537040  0.70511463     0.35700
H1073       H  0.19649167  0.84994639  0.84179636     0.28300
H1074       H  0.35588648  0.80869555  0.74361436     0.41200
H1075       H  0.32823988  0.64881920  0.73523536     0.31300
H1076       H  0.32879310  0.70981719  0.82471445     0.38900
H1077       H  0.13535102  0.81110431  0.68016177     0.30700
H1078       H  0.28201018  0.69033308  0.65227203     0.30800
H1079       H  0.13263246  0.69036221  0.75270911     0.31100
C1080       C  0.50027207  0.75706119  0.61805253    -0.02400
C1081       C  0.41573260  0.77497966  0.68103073    -0.12200
C1082       C  0.39254410  0.74701562  0.67402305     0.04800
C1083       C  0.40483938  0.72240684  0.64962056    -0.07500
C1084       C  0.43873285  0.72605843  0.63294177    -0.08300
C1085       C  0.46367621  0.75318704  0.64044060    -0.02800
C1086       C  0.45013802  0.77878584  0.66435858     0.04000
N1087       N  0.46692511  0.81159144  0.66713169     0.66500
H1088       H  0.40613036  0.79537897  0.69839655     0.15400
H1089       H  0.44311601  0.70818565  0.61158702     0.15100
N1090       N  0.38152929  0.69546936  0.63809500     0.74200
O1091       O  0.45029655  0.83767369  0.65497466    -0.39200
O1092       O  0.49721029  0.81518047  0.68290753    -0.39200
O1093       O  0.36195394  0.69981447  0.61094594    -0.39900
O1094       O  0.38827774  0.66537354  0.64848839    -0.39900
C1095       C  0.10410941  0.75718347  0.87402782    -0.12200
C1096       C  0.09914796  0.77970587  0.84573882     0.04800
C1097       C  0.06344604  0.79318292  0.83983600    -0.07500
C1098       C  0.03430564  0.78362804  0.86163109    -0.08300
C1099       C  0.03782385  0.75743212  0.88723112    -0.02800
C1100       C  0.07486885  0.74582610  0.89450844     0.04000
N1101       N  0.08486962  0.72394514  0.92318158     0.66500
H1102       H  0.13150934  0.74694231  0.87965126     0.15400
H1103       H  0.00769869  0.79533035  0.85656558     0.15100
N1104       N  0.05518762  0.81397333  0.81010886     0.74200
O1105       O  0.09327625  0.69304561  0.91642085    -0.39200
O1106       O  0.09956038  0.73740358  0.94991136    -0.39200
O1107       O  0.04187955  0.79998667  0.78298445    -0.39900
O1108       O  0.05065737  0.84587989  0.81450566    -0.39900
C1109       C  0.50236663  0.68748939  0.54170477    -0.12200
C1110       C  0.50294289  0.65800772  0.56253257     0.04800
C1111       C  0.50691037  0.66186484  0.59872402    -0.07500
C1112       C  0.50955533  0.69398386  0.61362126    -0.08300
C1113       C  0.50508786  0.72429058  0.59435087    -0.02800
C1114       C  0.50475705  0.72067547  0.55697827     0.04000
N1115       N  0.51199209  0.74848068  0.53409868     0.66500
H1116       H  0.50188563  0.68463079  0.51342017     0.15400
H1117       H  0.51141547  0.69517229  0.64177052     0.15100
N1118       N  0.50821058  0.63347736  0.62165592     0.74200
O1119       O  0.54493720  0.75710023  0.53047324    -0.39200
O1120       O  0.48978357  0.75466216  0.50925212    -0.39200
O1121       O  0.53595646  0.63096472  0.64139111    -0.39900
O1122       O  0.47838654  0.62098159  0.63153384    -0.39900
C1123       C  0.43357561  0.50085798  0.28154069    -0.12200
C1124       C  0.39491680  0.49582972  0.28113470     0.04800
C1125       C  0.37899791  0.49107958  0.31505311    -0.07500
C1126       C  0.40050108  0.49200889  0.34605521    -0.08300
C1127       C  0.43849760  0.49811946  0.34635475    -0.02800
C1128       C  0.45479317  0.50293027  0.31315544     0.04000
N1129       N  0.49308511  0.50952583  0.31059071     0.66500
H1130       H  0.44829034  0.50312426  0.25734208     0.15400
H1131       H  0.38657412  0.48834309  0.37067042     0.15100
N1132       N  0.34051070  0.48549925  0.31916560     0.74200
O1133       O  0.51510614  0.48508012  0.30320909    -0.39200
O1134       O  0.50297167  0.53990661  0.30597247    -0.39200
O1135       O  0.33015928  0.45537185  0.32449106    -0.39900
O1136       O  0.32004579  0.51021073  0.32920691    -0.39900
C1137       C  0.29722199  0.41552932  0.53630028    -0.12200
C1138       C  0.29522948  0.39382341  0.50607370     0.04800
C1139       C  0.32944319  0.38595514  0.48886866    -0.07500
C1140       C  0.36181753  0.40118323  0.50103471    -0.08300
C1141       C  0.36219181  0.42475206  0.52894566    -0.02800
C1142       C  0.32961812  0.43124029  0.54736172     0.04000
N1143       N  0.32835479  0.45445114  0.57661374     0.66500
H1144       H  0.27256262  0.42152825  0.55107947     0.15400
H1145       H  0.38730477  0.39520423  0.48751471     0.15100
N1146       N  0.33352390  0.36280530  0.45957483     0.74200
O1147       O  0.31984045  0.48555148  0.57155444    -0.39200
O1148       O  0.32543563  0.44249104  0.60703179    -0.39200
O1149       O  0.34464400  0.37482345  0.43112825    -0.39900
O1150       O  0.34120792  0.33171369  0.46534841    -0.39900
C1151       C  0.18954687  0.39175855  0.48878975    -0.12200
C1152       C  0.22509784  0.40505883  0.49263382     0.04800
C1153       C  0.22759945  0.44182725  0.48957954    -0.07500
C1154       C  0.19527624  0.46279177  0.48873992    -0.08300
C1155       C  0.16039529  0.44865104  0.48853174    -0.02800
C1156       C  0.15803953  0.41259124  0.48615668     0.04000
N1157       N  0.12352302  0.39628133  0.48138504     0.66500
H1158       H  0.18580092  0.36432535  0.48910257     0.15400
H1159       H  0.19757254  0.49042974  0.48895729     0.15100
N1160       N  0.26153057  0.45905159  0.48528005     0.74200
O1161       O  0.11408464  0.38709288  0.45085222    -0.39200
O1162       O  0.10910109  0.38207064  0.50722744    -0.39200
O1163       O  0.27237187  0.46417677  0.45451180    -0.39900
O1164       O  0.27117508  0.47993892  0.50892431    -0.39900
C1165       C  0.40980949  0.47321932  0.15096003    -0.12200
C1166       C  0.43139542  0.50124771  0.14438729     0.04800
C1167       C  0.43361972  0.52685250  0.17091139    -0.07500
C1168       C  0.41454305  0.52350479  0.20282754    -0.08300
C1169       C  0.39237179  0.49513584  0.21010451    -0.02800
C1170       C  0.38926950  0.47023353  0.18156221     0.04000
N1171       N  0.36323910  0.44326543  0.17977904     0.66500
H1172       H  0.40621457  0.45407088  0.13044407     0.15400
H1173       H  0.41654764  0.54400317  0.22210044     0.15100
N1174       N  0.45535557  0.55641688  0.16644148     0.74200
O1175       O  0.37564759  0.41280720  0.17782608    -0.39200
O1176       O  0.33228387  0.44961082  0.16582630    -0.39200
O1177       O  0.43936975  0.58447232  0.15896423    -0.39900
O1178       O  0.48695414  0.55692155  0.18035643    -0.39900
C1179       C  0.00285354  0.71302783  0.96787854    -0.12200
C1180       C  0.00805782  0.71424203  0.93070418     0.04800
C1181       C  0.01404250  0.68210511  0.91329903    -0.07500
C1182       C  0.01450842  0.65178513  0.93203913    -0.08300
C1183       C  0.00788956  0.65069135  0.96813333    -0.02800
C1184       C  0.00287707  0.68176400  0.98635664     0.04000
N1185       N  0.99842233  0.68194891  0.02354247     0.66500
H1186       H  0.99651957  0.73588342  0.98298710     0.15400
H1187       H  0.01910655  0.62836302  0.91721124     0.15100
N1188       N  0.01709589  0.67873062  0.87600339     0.74200
O1189       O  0.02581333  0.67514124  0.04302585    -0.39200
O1190       O  0.96650237  0.68143531  0.03618098    -0.39200
O1191       O  0.04866551  0.67474549  0.86291709    -0.39900
O1192       O  0.99015712  0.66658788  0.85931079    -0.39900
C1193       C  0.52482767  0.30896898  0.40530716    -0.12200
C1194       C  0.49350565  0.28854794  0.40958293     0.04800
C1195       C  0.46511222  0.30241486  0.43198278    -0.07500
C1196       C  0.46880219  0.33480303  0.44764277    -0.08300
C1197       C  0.50000203  0.35418436  0.44258966    -0.02800
C1198       C  0.52883195  0.34035832  0.42225823     0.04000
N1199       N  0.56179112  0.35863493  0.41648697     0.66500
H1200       H  0.54615513  0.30260986  0.38683794     0.15400
H1201       H  0.44642474  0.34525557  0.46339008     0.15100
N1202       N  0.43038590  0.28655685  0.43635448     0.74200
O1203       O  0.59010505  0.35068289  0.43425254    -0.39200
O1204       O  0.56558618  0.37388757  0.38780082    -0.39200
O1205       O  0.42458644  0.27092549  0.46444231    -0.39900
O1206       O  0.40293248  0.29935955  0.42029423    -0.39900
C1207       C  0.46670187  0.83253323  0.55666013    -0.12200
C1208       C  0.49487989  0.85605514  0.56203277     0.04800
C1209       C  0.52212447  0.84876022  0.58698841    -0.07500
C1210       C  0.52149550  0.81844100  0.60529989    -0.08300
C1211       C  0.49629675  0.79197353  0.59781478    -0.02800
C1212       C  0.46664524  0.80094836  0.57448981     0.04000
N1213       N  0.43425679  0.78090574  0.57156991     0.66500
H1214       H  0.44424190  0.83895013  0.53900055     0.15400
H1215       H  0.54103546  0.81711529  0.62666913     0.15100
N1216       N  0.54991020  0.87277843  0.59580140     0.74200
O1217       O  0.40806290  0.78788434  0.59212485    -0.39200
O1218       O  0.42679497  0.76654675  0.54267507    -0.39200
O1219       O  0.54607471  0.89108872  0.62306619    -0.39900
O1220       O  0.58172155  0.86798201  0.58346746    -0.39900
C1221       C  0.47915120  0.19226857  0.38682886    -0.12200
C1222       C  0.48667034  0.22165750  0.40746717     0.04800
C1223       C  0.49657847  0.21613210  0.44343658    -0.07500
C1224       C  0.49781223  0.18251054  0.45646712    -0.08300
C1225       C  0.48999277  0.15431399  0.43487400    -0.02800
C1226       C  0.47954900  0.15953661  0.40012390     0.04000
N1227       N  0.46716483  0.13218360  0.37821193     0.66500
H1228       H  0.47132471  0.19490692  0.35977196     0.15400
H1229       H  0.50563219  0.17831221  0.48359820     0.15100
N1230       N  0.50772055  0.24292522  0.46690074     0.74200
O1231       O  0.43330531  0.12584123  0.37751490    -0.39200
O1232       O  0.48658272  0.12305632  0.35244297    -0.39200
O1233       O  0.48776753  0.24990638  0.49302156    -0.39900
O1234       O  0.54146311  0.24944983  0.46927178    -0.39900
C1235       C  0.32233062  0.08493296  0.05081932    -0.12200
C1236       C  0.35257543  0.08926163  0.02917411     0.04800
C1237       C  0.35603007  0.12073090  0.01208660    -0.07500
C1238       C  0.32401574  0.13862717  0.00356449    -0.08300
C1239       C  0.29031203  0.12992357  0.01835760    -0.02800
C1240       C  0.29204663  0.10760404  0.04771579     0.04000
N1241       N  0.26436060  0.10788829  0.07419878     0.66500
H1242       H  0.32161670  0.06377006  0.06891248     0.15400
H1243       H  0.32612006  0.16041986  0.98658404     0.15100
N1244       N  0.39119859  0.13610963  0.00663679     0.74200
O1245       O  0.24107927  0.08447816  0.07492796    -0.39200
O1246       O  0.26973328  0.12541486  0.10168879    -0.39200
O1247       O  0.39241320  0.16589233  0.99419295    -0.39900
O1248       O  0.41914858  0.12497366  0.02304407    -0.39900
C1249       C  0.06051985  0.99218885  0.28057289    -0.12200
C1250       C  0.09847365  0.00012214  0.28290506     0.04800
C1251       C  0.11184667  0.00524737  0.31806258    -0.07500
C1252       C  0.08763022  0.00829316  0.34643319    -0.08300
C1253       C  0.04974854  0.00397476  0.34266837    -0.02800
C1254       C  0.03631374  0.99522233  0.30922004     0.04000
N1255       N  0.99868536  0.98670589  0.30406887     0.66500
H1256       H  0.04905327  0.98008385  0.25780572     0.15400
H1257       H  0.09910415  0.01244986  0.37244425     0.15100
N1258       N  0.15020733  0.00470336  0.32665119     0.74200
O1259       O  0.97656777  0.00922618  0.29222369    -0.39200
O1260       O  0.99037469  0.95555382  0.30166892    -0.39200
O1261       O  0.16322202  0.03007779  0.34298292    -0.39900
O1262       O  0.16663990  0.97599215  0.32938496    -0.39900
C1263       C  0.34706599  0.39865687  0.24733686    -0.12200
C1264       C  0.30950415  0.39883194  0.23864466     0.04800
C1265       C  0.29026201  0.43069163  0.23898302    -0.07500
C1266       C  0.30932028  0.46142971  0.24376456    -0.08300
C1267       C  0.34800201  0.46176313  0.24750259    -0.02800
C1268       C  0.36637407  0.42920183  0.25192723     0.04000
N1269       N  0.40475934  0.42643211  0.26057588     0.66500
H1270       H  0.36177745  0.37436648  0.25048210     0.15400
H1271       H  0.29317506  0.48494984  0.24469106     0.15100
N1272       N  0.25106982  0.43246203  0.23674967     0.74200
O1273       O  0.41460429  0.41714272  0.29088948    -0.39200
O1274       O  0.42877958  0.43006198  0.23733583    -0.39200
O1275       O  0.23301026  0.43640720  0.26466179    -0.39900
O1276       O  0.23608280  0.44073713  0.20801722    -0.39900
C1277       C  0.25848951  0.33901439  0.40391313    -0.12200
C1278       C  0.24760437  0.30482774  0.40801861     0.04800
C1279       C  0.23735700  0.29495639  0.44174088    -0.07500
C1280       C  0.24059802  0.31819929  0.47016123    -0.08300
C1281       C  0.25429678  0.35198737  0.46659500    -0.02800
C1282       C  0.25927714  0.36284699  0.43157068     0.04000
N1283       N  0.25997758  0.39832353  0.42242678     0.66500
H1284       H  0.26503981  0.34833386  0.37826165     0.15400
H1285       H  0.23096821  0.30932968  0.49506285     0.15100
N1286       N  0.22417849  0.26148539  0.44814080     0.74200
O1287       O  0.28829376  0.40972711  0.40820532    -0.39200
O1288       O  0.22956958  0.41333348  0.41598767    -0.39200
O1289       O  0.24619427  0.23905915  0.46033274    -0.39900
O1290       O  0.19005526  0.25772235  0.45171043    -0.39900
C1291       C  0.41348063  0.29624795  0.32415587    -0.12200
C1292       C  0.38379145  0.27538322  0.33112624     0.04800
C1293       C  0.38713318  0.25038460  0.35692941    -0.07500
C1294       C  0.42064417  0.24421118  0.37315747    -0.08300
C1295       C  0.45229077  0.26299815  0.36531657    -0.02800
C1296       C  0.44724371  0.29133455  0.34200295     0.04000
N1297       N  0.47459758  0.31677331  0.33793253     0.66500
H1298       H  0.41048541  0.31635694  0.30490617     0.15400
H1299       H  0.42022683  0.22604868  0.39425828     0.15100
N1300       N  0.35600877  0.23185263  0.36827512     0.74200
O1301       O  0.49257687  0.31752446  0.30984418    -0.39200
O1302       O  0.47149731  0.34406648  0.35582910    -0.39200
O1303       O  0.35436126  0.20026617  0.36119641    -0.39900
O1304       O  0.33672688  0.24421335  0.39291494    -0.39900
C1305       C  0.17704641  0.04766346  0.27111738    -0.12200
C1306       C  0.14143043  0.04121657  0.25716249     0.04800
C1307       C  0.11782127  0.07121437  0.25406059    -0.07500
C1308       C  0.13058784  0.10426006  0.26143300    -0.08300
C1309       C  0.16616835  0.10997479  0.27369545    -0.02800
C1310       C  0.18951515  0.08109965  0.27862066     0.04000
N1311       N  0.22638382  0.08506851  0.29085891     0.66500
H1312       H  0.19496577  0.02728252  0.27984882     0.15400
H1313       H  0.11207022  0.12608452  0.25732243     0.15100
N1314       N  0.07972066  0.06928736  0.24508334     0.74200
O1315       O  0.23364782  0.08050825  0.32289133    -0.39200
O1316       O  0.25224263  0.08411742  0.26900967    -0.39200
O1317       O  0.05666118  0.06967081  0.26962908    -0.39900
O1318       O  0.06931764  0.07984994  0.21536042    -0.39900
C1319       C  0.25987399  0.22058016  0.07701047    -0.12200
C1320       C  0.22865135  0.21532106  0.09677502     0.04800
C1321       C  0.20349448  0.19057788  0.08500709    -0.07500
C1322       C  0.21186069  0.16936251  0.05611810    -0.08300
C1323       C  0.24429738  0.17313514  0.03637403    -0.02800
C1324       C  0.26812679  0.20024282  0.04748461     0.04000
N1325       N  0.30210389  0.20703896  0.03066114     0.66500
H1326       H  0.27963130  0.23924500  0.08585338     0.15400
H1327       H  0.19298033  0.14908945  0.05051787     0.15100
N1328       N  0.16940904  0.18624173  0.10273427     0.74200
O1329       O  0.30294802  0.23185746  0.00979162    -0.39200
O1330       O  0.33155055  0.19845017  0.04637335    -0.39200
O1331       O  0.14583925  0.21047775  0.10365435    -0.39900
O1332       O  0.16391561  0.15922064  0.11957088    -0.39900
C1333       C  0.02391353  0.78861355  0.95713545    -0.12200
C1334       C  0.99601264  0.78081257  0.93227260     0.04800
C1335       C  0.96757022  0.80643294  0.92779996    -0.07500
C1336       C  0.96749380  0.83621173  0.94862472    -0.08300
C1337       C  0.99715488  0.84464799  0.97087188    -0.02800
C1338       C  0.02524648  0.81981512  0.97561978     0.04000
N1339       N  0.05688032  0.82648840  0.99682605     0.66500
H1340       H  0.04611690  0.77057430  0.96149291     0.15400
H1341       H  0.94527760  0.85475757  0.94429629     0.15100
N1342       N  0.94074597  0.80574216  0.90007921     0.74200
O1343       O  0.05898840  0.81391652  0.02711923    -0.39200
O1344       O  0.08590230  0.83588517  0.98221758    -0.39200
O1345       O  0.90735206  0.80280892  0.90801239    -0.39900
O1346       O  0.94798629  0.82048758  0.87178350    -0.39900
C1347       C  0.18993950  0.13589139  0.98566770    -0.12200
C1348       C  0.22392733  0.12101063  0.99675560     0.04800
C1349       C  0.22632324  0.08388413  0.99655489    -0.07500
C1350       C  0.19415857  0.06526818  0.99276543    -0.08300
C1351       C  0.16048590  0.08126874  0.98561901    -0.02800
C1352       C  0.15878174  0.11656749  0.97880972     0.04000
N1353       N  0.12673486  0.13281181  0.96314475     0.66500
H1354       H  0.18757436  0.16337855  0.98265548     0.15400
H1355       H  0.19558584  0.03758770  0.99517995     0.15100
N1356       N  0.25967474  0.06339075  0.99843656     0.74200
O1357       O  0.10641607  0.11599219  0.94259019    -0.39200
O1358       O  0.12321445  0.16507859  0.96361277    -0.39200
O1359       O  0.26315189  0.04267504  0.02347828    -0.39900
O1360       O  0.27494060  0.05451650  0.97013861    -0.39900
C1361       C  0.07203982  0.00593453  0.20191054    -0.12200
C1362       C  0.10989018  0.00492226  0.21103768     0.04800
C1363       C  0.13439122  0.00460128  0.18161597    -0.07500
C1364       C  0.12122870  0.99946667  0.14708626    -0.08300
C1365       C  0.08387035  0.99576705  0.13980434    -0.02800
C1366       C  0.05912358  0.99962628  0.16768932     0.04000
N1367       N  0.02035016  0.99823971  0.16175987     0.66500
H1368       H  0.05143818  0.01482509  0.21988175     0.15400
H1369       H  0.14042333  0.99969405  0.12551163     0.15100
N1370       N  0.17237500  0.01267424  0.18533382     0.74200
O1371       O  0.00181649  0.02587157  0.15933965    -0.39200
O1372       O  0.00408633  0.97099673  0.16883877    -0.39200
O1373       O  0.19629586  0.99137115  0.17411837    -0.39900
O1374       O  0.18073204  0.04382830  0.18765855    -0.39900
C1375       C  0.99680157  0.31053775  0.09473994    -0.12200
C1376       C  0.98809633  0.28020567  0.07657531     0.04800
C1377       C  0.97878547  0.28404070  0.03997893    -0.07500
C1378       C  0.98319615  0.31590409  0.02340687    -0.08300
C1379       C  0.99590864  0.34449612  0.04189762    -0.02800
C1380       C  0.00357626  0.34106485  0.07792097     0.04000
N1381       N  0.02082541  0.36764112  0.09773693     0.66500
H1382       H  0.00248514  0.30978607  0.12230287     0.15400
H1383       H  0.97445263  0.31880238  0.99633920     0.15100
N1384       N  0.96073321  0.25816990  0.01976992     0.74200
O1385       O  0.00375463  0.38138314  0.12308603    -0.39200
O1386       O  0.05548168  0.36869323  0.09758802    -0.39200
O1387       O  0.92603416  0.25803334  0.01978198    -0.39900
O1388       O  0.97717671  0.24540481  0.99352363    -0.39900
C1389       C  0.05645198  0.26284213  0.11451032    -0.12200
C1390       C  0.02662788  0.24051901  0.11894165     0.04800
C1391       C  0.03349683  0.21240161  0.14208446    -0.07500
C1392       C  0.06471317  0.21168868  0.16410192    -0.08300
C1393       C  0.08932710  0.23849132  0.16420837    -0.02800
C1394       C  0.08598738  0.26348261  0.13818700     0.04000
N1395       N  0.11241049  0.28988845  0.13561103     0.66500
H1396       H  0.05710569  0.28078562  0.09325558     0.15400
H1397       H  0.06844504  0.19106709  0.18269622     0.15100
N1398       N  0.00871711  0.18488777  0.14510607     0.74200
O1399       O  0.14334890  0.28341972  0.12202833    -0.39200
O1400       O  0.10658985  0.31834716  0.15084225    -0.39200
O1401       O  0.01648734  0.15714401  0.12919769    -0.39900
O1402       O  0.98898322  0.18384115  0.17209921    -0.39900
C1403       C  0.96090064  0.16014001  0.05040104    -0.12200
C1404       C  0.99020496  0.15637331  0.02713941     0.04800
C1405       C  0.01720535  0.18136901  0.02743640    -0.07500
C1406       C  0.01448004  0.20948559  0.05026631    -0.08300
C1407       C  0.98544495  0.21400511  0.07442762    -0.02800
C1408       C  0.95834338  0.18769928  0.07451003     0.04000
N1409       N  0.93004729  0.18547781  0.10013363     0.66500
H1410       H  0.94129601  0.13971324  0.05204053     0.15400
H1411       H  0.03615877  0.22803424  0.04949371     0.15100
N1412       N  0.04961182  0.17714698  0.00702108     0.74200
O1413       O  0.89714771  0.18948725  0.08990658    -0.39200
O1414       O  0.93599113  0.16659508  0.12628192    -0.39200
O1415       O  0.05323382  0.19557877  0.98036810    -0.39900
O1416       O  0.07784082  0.16378507  0.02126931    -0.39900
C1417       C  0.02793666  0.30579053  0.59783772    -0.12200
C1418       C  0.99537030  0.28714041  0.59790494     0.04800
C1419       C  0.96540040  0.30161580  0.57791388    -0.07500
C1420       C  0.96581541  0.33598231  0.56692007    -0.08300
C1421       C  0.99653664  0.35632919  0.57238715    -0.02800
C1422       C  0.02872245  0.33979799  0.58643256     0.04000
N1423       N  0.06256319  0.35705358  0.59121387     0.66500
H1424       H  0.05330832  0.29486703  0.60815300     0.15400
H1425       H  0.94165362  0.34674653  0.55389584     0.15100
N1426       N  0.93320683  0.28284436  0.56999578     0.74200
O1427       O  0.07087659  0.36733071  0.62168778    -0.39200
O1428       O  0.08817454  0.35057927  0.56987519    -0.39200
O1429       O  0.90316213  0.29278425  0.58348262    -0.39900
O1430       O  0.93231593  0.26606120  0.54153291    -0.39900
C1431       C  0.95542676  0.17031039  0.57445585    -0.12200
C1432       C  0.98633475  0.16043598  0.55477325     0.04800
C1433       C  0.01417855  0.18494454  0.55104235    -0.07500
C1434       C  0.01212688  0.21621369  0.56966386    -0.08300
C1435       C  0.98439045  0.22361501  0.59457163    -0.02800
C1436       C  0.95331825  0.20145141  0.59339255     0.04000
N1437       N  0.91850386  0.20960244  0.60911965     0.66500
H1438       H  0.93217589  0.15350122  0.57545053     0.15400
H1439       H  0.03494383  0.23340278  0.56743074     0.15100
N1440       N  0.04596571  0.17822262  0.53008637     0.74200
O1441       O  0.89468561  0.22518519  0.59068209    -0.39200
O1442       O  0.90690903  0.18964292  0.63213209    -0.39200
O1443       O  0.04829139  0.19274294  0.50082978    -0.39900
O1444       O  0.07495241  0.16679733  0.54469666    -0.39900
C1445       C  0.07578310  0.26499242  0.68624785    -0.12200
C1446       C  0.09882915  0.23649750  0.67864833     0.04800
C1447       C  0.08463526  0.21092925  0.65639681    -0.07500
C1448       C  0.04994964  0.21580422  0.64005937    -0.08300
C1449       C  0.02850816  0.24670730  0.64369177    -0.02800
C1450       C  0.04136299  0.27018376  0.66994862     0.04000
N1451       N  0.01994221  0.29938608  0.68136495     0.66500
H1452       H  0.08469054  0.28408437  0.70512429     0.15400
H1453       H  0.04031677  0.19449811  0.62462960     0.15100
N1454       N  0.10536982  0.18023459  0.64889039     0.74200
O1455       O  0.00084821  0.29661310  0.70861243    -0.39200
O1456       O  0.02998385  0.32886022  0.67290495    -0.39200
O1457       O  0.09566342  0.15245686  0.66221183    -0.39900
O1458       O  0.12634905  0.17932530  0.62271698    -0.39900
C1459       C  0.27084190  0.31461672  0.57716349    -0.12200
C1460       C  0.24604808  0.32712771  0.60196184     0.04800
C1461       C  0.22219786  0.35459130  0.59291398    -0.07500
C1462       C  0.22438940  0.36933787  0.55952388    -0.08300
C1463       C  0.25064584  0.35762466  0.53428106    -0.02800
C1464       C  0.27452312  0.32980650  0.54478590     0.04000
N1465       N  0.30467707  0.31717427  0.52440149     0.66500
H1466       H  0.28924820  0.29321200  0.58334500     0.15400
H1467       H  0.20689552  0.39159344  0.55486949     0.15100
N1468       N  0.19720223  0.36918235  0.61797509     0.74200
O1469       O  0.33650993  0.32494808  0.53478329    -0.39200
O1470       O  0.30115708  0.28888951  0.50846049    -0.39200
O1471       O  0.20928089  0.38745037  0.64284247    -0.39900
O1472       O  0.16450444  0.35912730  0.61869754    -0.39900
C1473       C  0.27783106  0.16828869  0.90823249    -0.12200
C1474       C  0.26495897  0.20189108  0.90522893     0.04800
C1475       C  0.24969525  0.21853878  0.93483883    -0.07500
C1476       C  0.24691957  0.20096325  0.96637198    -0.08300
C1477       C  0.25978141  0.16668622  0.97006538    -0.02800
C1478       C  0.27419341  0.15022074  0.93916140     0.04000
N1479       N  0.28265981  0.11447339  0.93676392     0.66500
H1480       H  0.28820235  0.15461353  0.88530443     0.15400
H1481       H  0.23333511  0.21453504  0.98761923     0.15100
N1482       N  0.23695818  0.25341326  0.93364346     0.74200
O1483       O  0.26043999  0.09642826  0.91938824    -0.39200
O1484       O  0.31613653  0.10507997  0.93716107    -0.39200
O1485       O  0.20279103  0.25987320  0.93368698    -0.39900
O1486       O  0.25871945  0.27669415  0.94264758    -0.39900
C1487       C  0.50398001  0.31948260  0.90669838    -0.12200
C1488       C  0.49944724  0.29050306  0.92789191     0.04800
C1489       C  0.49460811  0.29688810  0.96487389    -0.07500
C1490       C  0.49580936  0.33084891  0.97808851    -0.08300
C1491       C  0.50081331  0.35892924  0.95614561    -0.02800
C1492       C  0.50417509  0.35268827  0.91982528     0.04000
N1493       N  0.50640083  0.37971172  0.89502897     0.66500
H1494       H  0.50711211  0.31630231  0.87860809     0.15400
H1495       H  0.49267821  0.33525801  0.00601483     0.15100
N1496       N  0.48674843  0.27084258  0.98980284     0.74200
O1497       O  0.53663536  0.38398664  0.87992647    -0.39200
O1498       O  0.47717718  0.38997998  0.88000517    -0.39200
O1499       O  0.50869857  0.26672006  0.01526613    -0.39900
O1500       O  0.45370717  0.26330516  0.99465045    -0.39900
C1501       C  0.46267014  0.20233995  0.92241120    -0.12200
C1502       C  0.49251902  0.22370986  0.92941487     0.04800
C1503       C  0.52013796  0.21081054  0.95337295    -0.07500
C1504       C  0.51515670  0.17963479  0.97059658    -0.08300
C1505       C  0.48616746  0.15821870  0.96160445    -0.02800
C1506       C  0.45994331  0.16999859  0.93657785     0.04000
N1507       N  0.43344961  0.14822138  0.92050380     0.66500
H1508       H  0.44274533  0.20809245  0.90213951     0.15400
H1509       H  0.53660219  0.17038031  0.98826301     0.15100
N1510       N  0.55596409  0.22515157  0.95647433     0.74200
O1511       O  0.39978525  0.15427301  0.92623429    -0.39200
O1512       O  0.44210051  0.13420784  0.89166645    -0.39200
O1513       O  0.56530837  0.23895489  0.98512949    -0.39900
O1514       O  0.58118226  0.21189768  0.93786954    -0.39900
C1515       C  0.46556043  0.26623621  0.84481123    -0.12200
C1516       C  0.46228285  0.26347297  0.88168538     0.04800
C1517       C  0.42629517  0.27126781  0.89541821    -0.07500
C1518       C  0.39588477  0.27623492  0.87321051    -0.08300
C1519       C  0.39925150  0.27564458  0.83704122    -0.02800
C1520       C  0.43468842  0.27162904  0.82268369     0.04000
N1521       N  0.44016248  0.27409355  0.78580600     0.66500
H1522       H  0.49217645  0.26481799  0.83252315     0.15400
H1523       H  0.36882138  0.27979877  0.88463846     0.15100
N1524       N  0.41908301  0.27413616  0.93197079     0.74200
O1525       O  0.44703659  0.30296278  0.77316416    -0.39200
O1526       O  0.44831337  0.24734783  0.76838080    -0.39200
O1527       O  0.41520269  0.30393864  0.94486732    -0.39900
O1528       O  0.40236719  0.25005515  0.94624113    -0.39900
C1529       C  0.56645461  0.97574005  0.32962580    -0.12200
C1530       C  0.54491619  0.00527722  0.33660249     0.04800
C1531       C  0.54833309  0.03277087  0.31326623    -0.07500
C1532       C  0.57229525  0.03034572  0.28447083    -0.08300
C1533       C  0.59784021  0.00273311  0.27942583    -0.02800
C1534       C  0.59248843  0.97382111  0.30201158     0.04000
N1535       N  0.61120758  0.94146923  0.29752398     0.66500
H1536       H  0.56426012  0.95404293  0.34691598     0.15400
H1537       H  0.57313462  0.05220743  0.26725776     0.15100
N1538       N  0.52962749  0.06467402  0.31939616     0.74200
O1539       O  0.63384969  0.93223431  0.32102670    -0.39200
O1540       O  0.59502885  0.91830284  0.28050674    -0.39200
O1541       O  0.54801784  0.08915001  0.33165865    -0.39900
O1542       O  0.50065755  0.07129844  0.30205781    -0.39900
C1543       C  0.60490668  0.04328960  0.19507010    -0.12200
C1544       C  0.60302660  0.01255699  0.21454978     0.04800
C1545       C  0.57645732  0.98872130  0.20223656    -0.07500
C1546       C  0.56023605  0.99258949  0.16883925    -0.08300
C1547       C  0.56790359  0.02056641  0.14741763    -0.02800
C1548       C  0.58925463  0.04682454  0.16167743     0.04000
N1549       N  0.59764564  0.07646062  0.14193916     0.66500
H1550       H  0.61884261  0.06547326  0.20485372     0.15400
H1551       H  0.54171543  0.97309838  0.15942066     0.15100
N1552       N  0.56475219  0.96076909  0.22301899     0.74200
O1553       O  0.58010960  0.10415789  0.14797551    -0.39200
O1554       O  0.62825815  0.07740785  0.12670331    -0.39200
O1555       O  0.53599007  0.96506056  0.24096909    -0.39900
O1556       O  0.57413083  0.93059698  0.21413452    -0.39900
C1557       C  0.69176446  0.08426171  0.23035317    -0.12200
C1558       C  0.67941425  0.10868759  0.25468186     0.04800
C1559       C  0.65707411  0.09730862  0.28225029    -0.07500
C1560       C  0.64570103  0.06305663  0.28323433    -0.08300
C1561       C  0.65224213  0.03968491  0.25509423    -0.02800
C1562       C  0.67964461  0.05022511  0.23064071     0.04000
N1563       N  0.69419837  0.02802840  0.20402139     0.66500
H1564       H  0.71119276  0.09161377  0.21057267     0.15400
H1565       H  0.63008734  0.05588353  0.30576753     0.15100
N1566       N  0.64382719  0.12070270  0.30864726     0.74200
O1567       O  0.72146797  0.00891169  0.21185205    -0.39200
O1568       O  0.69053024  0.03740375  0.17258565    -0.39200
O1569       O  0.61956761  0.14310839  0.30091416    -0.39900
O1570       O  0.66020874  0.12238648  0.33788557    -0.39900
C1571       C  0.55809561  0.24006378  0.30844191    -0.12200
C1572       C  0.59112594  0.23760423  0.32762397     0.04800
C1573       C  0.58979933  0.23632993  0.36418716    -0.07500
C1574       C  0.55633905  0.24085892  0.38086448    -0.08300
C1575       C  0.52287916  0.24754004  0.36260110    -0.02800
C1576       C  0.52382881  0.24294335  0.32528644     0.04000
N1577       N  0.49187067  0.23574328  0.30441633     0.66500
H1578       H  0.55887915  0.23859201  0.28006321     0.15400
H1579       H  0.55703776  0.24141632  0.40902453     0.15100
N1580       N  0.62241117  0.23353600  0.38523633     0.74200
O1581       O  0.48244000  0.25636192  0.28056844    -0.39200
O1582       O  0.48351919  0.20476099  0.30019511    -0.39200
O1583       O  0.63559194  0.26041715  0.39847878    -0.39900
O1584       O  0.63077864  0.20498885  0.39870570    -0.39900
C1585       C  0.92830304  0.26170923  0.18365055    -0.12200
C1586       C  0.89302350  0.26228510  0.16901892     0.04800
C1587       C  0.88949034  0.26100377  0.13226490    -0.07500
C1588       C  0.92079656  0.25657982  0.11141912    -0.08300
C1589       C  0.95647870  0.25242607  0.12568900    -0.02800
C1590       C  0.95989231  0.25909038  0.16281690     0.04000
N1591       N  0.99356263  0.26828163  0.17993352     0.66500
H1592       H  0.93148943  0.26538363  0.21172771     0.15400
H1593       H  0.91686067  0.25499128  0.08340989     0.15100
N1594       N  0.85445256  0.26335022  0.11525420     0.74200
O1595       O  0.00607371  0.24896797  0.20373642    -0.39200
O1596       O  0.00071741  0.29971589  0.18228969    -0.39200
O1597       O  0.84829974  0.28798218  0.09476952    -0.39900
O1598       O  0.83568892  0.23671200  0.11187667    -0.39900
C1599       C  0.91434071  0.48939531  0.29105217    -0.12200
C1600       C  0.88380683  0.51204441  0.28621869     0.04800
C1601       C  0.87387456  0.53229705  0.31686390    -0.07500
C1602       C  0.89357708  0.52888607  0.34873760    -0.08300
C1603       C  0.92315709  0.50559290  0.35311373    -0.02800
C1604       C  0.93388037  0.48617542  0.32311353     0.04000
N1605       N  0.96486855  0.46303668  0.32413411     0.66500
H1606       H  0.92310136  0.47314094  0.26967316     0.15400
H1607       H  0.88446021  0.54435345  0.37093963     0.15100
N1608       N  0.84295296  0.55565131  0.31795350     0.74200
O1609       O  0.95948360  0.43130364  0.32618951    -0.39200
O1610       O  0.99528833  0.47294678  0.31282665    -0.39200
O1611       O  0.81355652  0.54588676  0.33158995    -0.39900
O1612       O  0.84890698  0.58738440  0.31749625    -0.39900
C1613       C  0.91720636  0.51682083  0.21122096    -0.12200
C1614       C  0.87927445  0.50951250  0.21483552     0.04800
C1615       C  0.85834854  0.50757601  0.18270122    -0.07500
C1616       C  0.87489580  0.51171346  0.15002360    -0.08300
C1617       C  0.91214704  0.51814897  0.14695310    -0.02800
C1618       C  0.93356298  0.52036016  0.17781940     0.04000
N1619       N  0.97237533  0.52450210  0.17536669     0.66500
H1620       H  0.93446916  0.52035534  0.23406419     0.15400
H1621       H  0.85825577  0.50913191  0.12644279     0.15100
N1622       N  0.81975958  0.50147669  0.18214745     0.74200
O1623       O  0.98475290  0.55410076  0.17126756    -0.39200
O1624       O  0.99270345  0.49866944  0.16848301    -0.39200
O1625       O  0.79829781  0.52574872  0.17305700    -0.39900
O1626       O  0.80925137  0.47115698  0.17755166    -0.39900
C1627       C  0.83941271  0.40913205  0.24356359    -0.12200
C1628       C  0.81409838  0.40419260  0.27029667     0.04800
C1629       C  0.80491220  0.43265015  0.29194603    -0.07500
C1630       C  0.81949242  0.46512133  0.28495730    -0.08300
C1631       C  0.84238832  0.47118368  0.25592371    -0.02800
C1632       C  0.85461135  0.44093283  0.23687021     0.04000
N1633       N  0.88485551  0.43999391  0.21296141     0.66500
H1634       H  0.84900342  0.38730039  0.22802494     0.15400
H1635       H  0.81304117  0.48592830  0.30290599     0.15100
N1636       N  0.78055690  0.42956080  0.32080875     0.74200
O1637       O  0.91627508  0.43134259  0.22459371    -0.39200
O1638       O  0.87822944  0.43451907  0.18087582    -0.39200
O1639       O  0.79380761  0.42920140  0.35149235    -0.39900
O1640       O  0.74693406  0.43726938  0.31651080    -0.39900
C1641       C  0.25801720  0.85587402  0.59389887    -0.12200
C1642       C  0.25274305  0.82067785  0.59515997     0.04800
C1643       C  0.24445864  0.80268942  0.56404819    -0.07500
C1644       C  0.24126866  0.82020216  0.53241976    -0.08300
C1645       C  0.24654830  0.85572959  0.53042722    -0.02800
C1646       C  0.25413044  0.87370543  0.56260499     0.04000
N1647       N  0.25710049  0.91021490  0.56465149     0.66500
H1648       H  0.26315036  0.87020193  0.61791541     0.15400
H1649       H  0.23264963  0.80568835  0.50965599     0.15100
N1650       N  0.23904027  0.76657120  0.56392418     0.74200
O1651       O  0.23045368  0.92741724  0.57733376    -0.39200
O1652       O  0.28874301  0.92271730  0.56675855    -0.39200
O1653       O  0.20669570  0.75566299  0.56205901    -0.39900
O1654       O  0.26550802  0.74673705  0.55552095    -0.39900
C1655       C  0.20209170  0.93080807  0.50702108    -0.12200
C1656       C  0.20429111  0.89493497  0.50250305     0.04800
C1657       C  0.17108614  0.87667228  0.50925967    -0.07500
C1658       C  0.13914728  0.89396301  0.52071202    -0.08300
C1659       C  0.13696455  0.92947433  0.52346386    -0.02800
C1660       C  0.16876893  0.94806590  0.51572818     0.04000
N1661       N  0.16740652  0.98462904  0.51493456     0.66500
H1662       H  0.22643798  0.94581833  0.50473471     0.15400
H1663       H  0.11444761  0.87939271  0.52433833     0.15100
N1664       N  0.16795885  0.84051365  0.50350326     0.74200
O1665       O  0.18093187  0.00127148  0.54028819    -0.39200
O1666       O  0.16266034  0.99926946  0.48586420    -0.39200
O1667       O  0.16307506  0.82190418  0.52982656    -0.39900
O1668       O  0.15531350  0.83037458  0.47436785    -0.39900
C1669       C  0.31079777  0.88451381  0.50397359    -0.12200
C1670       C  0.27761677  0.89641315  0.48806810     0.04800
C1671       C  0.28184979  0.92153949  0.46111133    -0.07500
C1672       C  0.31709733  0.93480832  0.45377670    -0.08300
C1673       C  0.34908245  0.92212753  0.47055308    -0.02800
C1674       C  0.34525874  0.89578189  0.49493691     0.04000
N1675       N  0.37667881  0.87899637  0.51053424     0.66500
H1676       H  0.31142172  0.86368579  0.52233916     0.15400
H1677       H  0.31930672  0.95537723  0.43513390     0.15100
N1678       N  0.25155336  0.93377176  0.44017029     0.74200
O1679       O  0.38184582  0.88192895  0.54315321    -0.39200
O1680       O  0.39169421  0.85402869  0.49443902    -0.39200
O1681       O  0.23983960  0.96414554  0.44510724    -0.39900
O1682       O  0.24718374  0.92059348  0.41012273    -0.39900
C1683       C  0.26388846  0.80909519  0.41948687    -0.12200
C1684       C  0.23779489  0.81844642  0.39406357     0.04800
C1685       C  0.21128756  0.84407598  0.40276494    -0.07500
C1686       C  0.21228959  0.86016284  0.43570150    -0.08300
C1687       C  0.23902121  0.85175325  0.46161132    -0.02800
C1688       C  0.26572769  0.82551274  0.45219455     0.04000
N1689       N  0.29670034  0.81585358  0.47365952     0.66500
H1690       H  0.28452964  0.78941457  0.41357119     0.15400
H1691       H  0.19259941  0.88098671  0.43980648     0.15100
N1692       N  0.18432194  0.85595093  0.37796501     0.74200
O1693       O  0.29531224  0.78821386  0.49040335    -0.39200
O1694       O  0.32792335  0.82481628  0.46352142    -0.39200
O1695       O  0.15130520  0.84756509  0.38164341    -0.39900
O1696       O  0.19127938  0.88147173  0.35933845    -0.39900
C1697       C  0.29950231  0.57043818  0.21760457    -0.12200
C1698       C  0.30139042  0.59365746  0.24575037     0.04800
C1699       C  0.32603840  0.58564569  0.27321231    -0.07500
C1700       C  0.34735949  0.55505281  0.27244703    -0.08300
C1701       C  0.34467685  0.52986517  0.24527597    -0.02800
C1702       C  0.32039813  0.53934264  0.21677974     0.04000
N1703       N  0.31739706  0.51914081  0.18550513     0.66500
H1704       H  0.28227043  0.57698687  0.19520866     0.15400
H1705       H  0.36701230  0.55242781  0.29357905     0.15100
N1706       N  0.33198183  0.60946991  0.30126675     0.74200
O1707       O  0.28744861  0.50434856  0.17957283    -0.39200
O1708       O  0.33659043  0.52720147  0.15958751    -0.39200
O1709       O  0.31833349  0.60365678  0.33083879    -0.39900
O1710       O  0.35852306  0.62959440  0.29939239    -0.39900
C1711       C  0.18982951  0.96847947  0.24704544    -0.12200
C1712       C  0.15070864  0.96971947  0.24996989     0.04800
C1713       C  0.13400849  0.93675875  0.24758901    -0.07500
C1714       C  0.15509122  0.90620316  0.24594761    -0.08300
C1715       C  0.19353911  0.90533422  0.24511204    -0.02800
C1716       C  0.21095134  0.93727454  0.24541480     0.04000
N1717       N  0.25007081  0.93892130  0.24433525     0.66500
H1718       H  0.20501769  0.99118277  0.24265815     0.15400
H1719       H  0.14050270  0.88232599  0.24423197     0.15100
N1720       N  0.09520923  0.93285851  0.24419009     0.74200
O1721       O  0.26541105  0.94339241  0.21526855    -0.39200
O1722       O  0.26749160  0.94554226  0.27226184    -0.39200
O1723       O  0.08170752  0.93002234  0.21372416    -0.39900
O1724       O  0.07839886  0.91957351  0.26926310    -0.39900
C1725       C  0.03827943  0.74002050  0.33046215    -0.12200
C1726       C  0.03983055  0.74071724  0.36747881     0.04800
C1727       C  0.07412785  0.72890266  0.38320724    -0.07500
C1728       C  0.10511478  0.72245203  0.36261524    -0.08300
C1729       C  0.10362109  0.72541581  0.32649166    -0.02800
C1730       C  0.06972385  0.73347344  0.31016046     0.04000
N1731       N  0.06668718  0.73523435  0.27287866     0.66500
H1732       H  0.01255896  0.74409419  0.31663936     0.15400
H1733       H  0.13104920  0.71560485  0.37529654     0.15100
N1734       N  0.07795255  0.71982927  0.41935308     0.74200
O1735       O  0.05543765  0.70950423  0.25595534    -0.39200
O1736       O  0.06560541  0.76420304  0.25851563    -0.39200
O1737       O  0.08097672  0.68833109  0.42628520    -0.39900
O1738       O  0.09252479  0.74067025  0.44044544    -0.39900
C1739       C  0.99906078  0.68289044  0.38434826    -0.12200
C1740       C  0.00096693  0.71141636  0.40780111     0.04800
C1741       C  0.00387460  0.70366226  0.44425947    -0.07500
C1742       C  0.00901856  0.66923996  0.45488823    -0.08300
C1743       C  0.01138919  0.64197333  0.43051420    -0.02800
C1744       C  0.00444205  0.64906016  0.39507985     0.04000
N1745       N  0.00305952  0.62227682  0.36927543     0.66500
H1746       H  0.99493080  0.68716526  0.35655587     0.15400
H1747       H  0.01138479  0.66376787  0.48262273     0.15100
N1748       N  0.00268536  0.72947263  0.47107712     0.74200
O1749       O  0.97214159  0.61121327  0.35982583    -0.39200
O1750       O  0.03026689  0.61742698  0.34937145    -0.39200
O1751       O  0.97384198  0.73296277  0.48905051    -0.39900
O1752       O  0.03248401  0.74016397  0.48377341    -0.39900
C1753       C  0.97520617  0.78912775  0.43367295    -0.12200
C1754       C  0.00704472  0.77993467  0.41422720     0.04800
C1755       C  0.03500246  0.80548119  0.41319065    -0.07500
C1756       C  0.02891048  0.83787483  0.42876569    -0.08300
C1757       C  0.99563023  0.84757902  0.44466101    -0.02800
C1758       C  0.96892712  0.82207996  0.44799940     0.04000
N1759       N  0.93420319  0.82925437  0.46403237     0.66500
H1760       H  0.95310094  0.77114401  0.43536722     0.15400
H1761       H  0.05043220  0.85643599  0.42649024     0.15100
N1762       N  0.06910569  0.80136141  0.39501110     0.74200
O1763       O  0.90687380  0.83680320  0.44475401    -0.39200
O1764       O  0.92870518  0.81833593  0.49450078    -0.39200
O1765       O  0.07090478  0.81248858  0.36418032    -0.39900
O1766       O  0.09835392  0.80060398  0.41306701    -0.39900
C1767       C  0.71680632  0.19132100  0.40667131    -0.12200
C1768       C  0.73283890  0.22342821  0.41130913     0.04800
C1769       C  0.75011044  0.22997436  0.44373358    -0.07500
C1770       C  0.75101258  0.20455056  0.46990042    -0.08300
C1771       C  0.73646013  0.17106934  0.46452310    -0.02800
C1772       C  0.72179991  0.16469961  0.43050240     0.04000
N1773       N  0.71463056  0.13105174  0.41769705     0.66500
H1774       H  0.70223859  0.18541237  0.38262712     0.15400
H1775       H  0.76491445  0.21110707  0.49414371     0.15100
N1776       N  0.76557731  0.26252126  0.45135071     0.74200
O1777       O  0.68161762  0.12222601  0.41420861    -0.39200
O1778       O  0.73818738  0.11765626  0.39731102    -0.39200
O1779       O  0.74675658  0.28453676  0.46832665    -0.39900
O1780       O  0.79999255  0.26553927  0.44991952    -0.39900
C1781       C  0.80817713  0.06679982  0.46429924    -0.12200
C1782       C  0.84132893  0.08427340  0.46357731     0.04800
C1783       C  0.84064541  0.11977419  0.46890340    -0.07500
C1784       C  0.80765384  0.13688057  0.47759527    -0.08300
C1785       C  0.77397884  0.11960916  0.48164116    -0.02800
C1786       C  0.77433121  0.08399094  0.47138849     0.04000
N1787       N  0.74161716  0.06502226  0.46470653     0.66500
H1788       H  0.80855303  0.03937964  0.45942091     0.15400
H1789       H  0.80906619  0.16400164  0.48334850     0.15100
N1790       N  0.87415917  0.13832306  0.46838792     0.74200
O1791       O  0.73454810  0.04055244  0.48461867    -0.39200
O1792       O  0.73050309  0.06253577  0.43342525    -0.39200
O1793       O  0.88975562  0.14307505  0.43949526    -0.39900
O1794       O  0.89209496  0.14265136  0.49650701    -0.39900
C1795       C  0.66952937  0.13577670  0.48674189    -0.12200
C1796       C  0.70309534  0.12240937  0.50048026     0.04800
C1797       C  0.69916309  0.09640970  0.52675629    -0.07500
C1798       C  0.66463677  0.08143423  0.53282113    -0.08300
C1799       C  0.63248448  0.09353241  0.51624496    -0.02800
C1800       C  0.63533783  0.12201426  0.49406468     0.04000
N1801       N  0.60323765  0.13833213  0.47929395     0.66500
H1802       H  0.66863004  0.15882139  0.47144942     0.15400
H1803       H  0.66301519  0.06043019  0.55103370     0.15100
N1804       N  0.72796054  0.08799793  0.55118650     0.74200
O1805       O  0.58854264  0.16346256  0.49541313    -0.39200
O1806       O  0.59617599  0.13409062  0.44710855    -0.39200
O1807       O  0.72628035  0.10180728  0.58122913    -0.39900
O1808       O  0.74466611  0.05941004  0.54843266    -0.39900
C1809       C  0.18890972  0.54966193  0.73682366    -0.12200
C1810       C  0.16314315  0.54325510  0.76342643     0.04800
C1811       C  0.15315171  0.57207444  0.78500632    -0.07500
C1812       C  0.17239263  0.60263680  0.78258915    -0.08300
C1813       C  0.20013426  0.60783490  0.75768192    -0.02800
C1814       C  0.20748077  0.58079605  0.73385865     0.04000
N1815       N  0.23095020  0.58515758  0.70453287     0.66500
H1816       H  0.19471598  0.53014423  0.71756375     0.15400
H1817       H  0.16293796  0.62367351  0.79911784     0.15100
N1818       N  0.12028789  0.57372288  0.80550053     0.74200
O1819       O  0.26328936  0.57274795  0.70562491    -0.39200
O1820       O  0.21657031  0.59204726  0.67513639    -0.39200
O1821       O  0.12320138  0.57572001  0.83842928    -0.39900
O1822       O  0.09136266  0.58591924  0.79145568    -0.39900
C1823       C  0.14850662  0.44470923  0.76292149    -0.12200
C1824       C  0.16857055  0.47514320  0.76420491     0.04800
C1825       C  0.20794216  0.47132337  0.76706764    -0.07500
C1826       C  0.22449678  0.43820019  0.76517891    -0.08300
C1827       C  0.20337256  0.40871850  0.76173014    -0.02800
C1828       C  0.16478021  0.41246200  0.76248592     0.04000
N1829       N  0.14079195  0.38398670  0.76229657     0.66500
H1830       H  0.11878302  0.44581603  0.76107443     0.15400
H1831       H  0.25423675  0.43562351  0.76577412     0.15100
N1832       N  0.23219705  0.49936126  0.77202236     0.74200
O1833       O  0.13482255  0.36942710  0.79097897    -0.39200
O1834       O  0.11673024  0.38228146  0.73831060    -0.39200
O1835       O  0.24250468  0.50684749  0.80276771    -0.39900
O1836       O  0.25331366  0.50648956  0.74720580    -0.39900
C1837       C  0.10913547  0.48831433  0.66505876    -0.12200
C1838       C  0.07769586  0.50941664  0.66173719     0.04800
C1839       C  0.06874323  0.53090097  0.69086363    -0.07500
C1840       C  0.09036810  0.52996170  0.72188209    -0.08300
C1841       C  0.12113315  0.50753204  0.72639003    -0.02800
C1842       C  0.13154755  0.48803986  0.69536528     0.04000
N1843       N  0.16628220  0.47030352  0.69149301     0.66500
H1844       H  0.11807938  0.47290943  0.64276026     0.15400
H1845       H  0.08212405  0.54660812  0.74322609     0.15100
N1846       N  0.03748816  0.55374729  0.69004118     0.74200
O1847       O  0.16636960  0.43800938  0.68950888    -0.39200
O1848       O  0.19154256  0.48547077  0.67588669    -0.39200
O1849       O  0.00818454  0.54482667  0.70446862    -0.39900
O1850       O  0.04234237  0.58515896  0.68468686    -0.39900
C1851       C  0.08082231  0.49424257  0.79465164    -0.12200
C1852       C  0.11856549  0.50291235  0.79703838     0.04800
C1853       C  0.13464039  0.50026252  0.83153647    -0.07500
C1854       C  0.11357383  0.49101759  0.86062745    -0.08300
C1855       C  0.07641244  0.48300516  0.85773349    -0.02800
C1856       C  0.06002321  0.48500181  0.82416002     0.04000
N1857       N  0.02189285  0.47832090  0.81938726     0.66500
H1858       H  0.06696371  0.49285088  0.76963266     0.15400
H1859       H  0.12656794  0.49075861  0.88633635     0.15100
N1860       N  0.17293030  0.50508477  0.83805116     0.74200
O1861       O  0.99927373  0.50326494  0.81738591    -0.39200
O1862       O  0.01263185  0.44932635  0.80783840    -0.39200
O1863       O  0.18302331  0.53366702  0.85004103    -0.39900
O1864       O  0.19249424  0.47887221  0.84512873    -0.39900
C1865       C  0.23528701  0.63805575  0.92366895    -0.12200
C1866       C  0.23969440  0.65344475  0.95704224     0.04800
C1867       C  0.24540160  0.68967403  0.95797570    -0.07500
C1868       C  0.24226812  0.70832207  0.92668974    -0.08300
C1869       C  0.23476210  0.69210527  0.89450514    -0.02800
C1870       C  0.23160945  0.65654685  0.89326038     0.04000
N1871       N  0.22497280  0.63826395  0.86130011     0.66500
H1872       H  0.23221416  0.61086313  0.92126021     0.15400
H1873       H  0.24685444  0.73567047  0.92740900     0.15100
N1874       N  0.25883453  0.70776538  0.98822752     0.74200
O1875       O  0.25206761  0.62601252  0.84448026    -0.39200
O1876       O  0.19391452  0.62512366  0.85688807    -0.39200
O1877       O  0.29295541  0.71264195  0.99046317    -0.39900
O1878       O  0.23771604  0.72951353  0.00293772    -0.39900
C1879       C  0.17631349  0.61250743  0.96657534    -0.12200
C1880       C  0.20711394  0.60425645  0.98803683     0.04800
C1881       C  0.20330435  0.57660325  0.01181505    -0.07500
C1882       C  0.17149055  0.55711103  0.01091723    -0.08300
C1883       C  0.14214098  0.56506451  0.98814540    -0.02800
C1884       C  0.14492904  0.59322280  0.96577220     0.04000
N1885       N  0.11484765  0.60519214  0.94449486     0.66500
H1886       H  0.17452439  0.63587424  0.95173822     0.15400
H1887       H  0.16939563  0.53614938  0.02913263     0.15100
N1888       N  0.22972974  0.56920329  0.03889800     0.74200
O1889       O  0.09377574  0.62848151  0.95661420    -0.39200
O1890       O  0.11636626  0.60070851  0.91172840    -0.39200
O1891       O  0.22258336  0.57953879  0.06961265    -0.39900
O1892       O  0.25140162  0.54370519  0.03524517    -0.39900
C1893       C  0.31002404  0.62701866  0.98453338    -0.12200
C1894       C  0.27793930  0.60763655  0.98067480     0.04800
C1895       C  0.28276676  0.57269787  0.96965974    -0.07500
C1896       C  0.31797068  0.55741642  0.97158075    -0.08300
C1897       C  0.34850024  0.57644587  0.98182917    -0.02800
C1898       C  0.34463143  0.61188782  0.98663977     0.04000
N1899       N  0.37540752  0.63311047  0.99372051     0.66500
H1900       H  0.30800993  0.65400788  0.98984933     0.15400
H1901       H  0.32155211  0.53057650  0.96444887     0.15100
N1902       N  0.25493840  0.55386138  0.95147296     0.74200
O1903       O  0.39024406  0.64805061  0.96852756    -0.39200
O1904       O  0.38013278  0.64463654  0.02443341    -0.39200
O1905       O  0.25534723  0.55394987  0.91838713    -0.39900
O1906       O  0.24176968  0.52809459  0.96605443    -0.39900
C1907       C  0.21509967  0.68194833  0.07061061    -0.12200
C1908       C  0.24489065  0.67494136  0.09347692     0.04800
C1909       C  0.27203893  0.65095833  0.08278098    -0.07500
C1910       C  0.26963993  0.63582388  0.04976290    -0.08300
C1911       C  0.24165926  0.64474200  0.02509314    -0.02800
C1912       C  0.21258156  0.66668941  0.03737746     0.04000
N1913       N  0.17892623  0.67198186  0.01813561     0.66500
H1914       H  0.19275436  0.69905534  0.07866238     0.15400
H1915       H  0.28950992  0.61542089  0.04477068     0.15100
N1916       N  0.30193326  0.64058684  0.10515753     0.74200
O1917       O  0.15198448  0.65376109  0.02572577    -0.39200
O1918       O  0.17224944  0.70078853  0.00449366    -0.39200
O1919       O  0.30076594  0.61198887  0.12018132    -0.39900
O1920       O  0.33263951  0.65447310  0.10159624    -0.39900
C1921       C  0.72445084  0.30047237  0.04664503    -0.12200
C1922       C  0.74836891  0.32861824  0.04460286     0.04800
C1923       C  0.77183896  0.33436647  0.07439216    -0.07500
C1924       C  0.77165282  0.31163012  0.10225446    -0.08300
C1925       C  0.74614892  0.28568929  0.10463372    -0.02800
C1926       C  0.72298481  0.27932341  0.07596458     0.04000
N1927       N  0.69603838  0.25332871  0.07689002     0.66500
H1928       H  0.70586528  0.29501798  0.02538292     0.15400
H1929       H  0.79013714  0.31613649  0.12402391     0.15100
N1930       N  0.79282941  0.36464506  0.08007140     0.74200
O1931       O  0.66524171  0.26022385  0.09057616    -0.39200
O1932       O  0.69909236  0.22790465  0.05628535    -0.39200
O1933       O  0.77978503  0.38741462  0.10050133    -0.39900
O1934       O  0.82739893  0.36193063  0.07819358    -0.39900
C1935       C  0.77066835  0.41394522  0.00626191    -0.12200
C1936       C  0.77588007  0.37796041  0.00915530     0.04800
C1937       C  0.81256559  0.36478594  0.00462754    -0.07500
C1938       C  0.84199957  0.38713397  0.00426303    -0.08300
C1939       C  0.83611231  0.42259285  0.00442194    -0.02800
C1940       C  0.80005183  0.43594447  0.00307654     0.04000
N1941       N  0.79251622  0.47153828  0.99727076     0.66500
H1942       H  0.74362129  0.42565127  0.00392598     0.15400
H1943       H  0.86982012  0.37657691  0.00279447     0.15100
N1944       N  0.82090500  0.32904316  0.99971107     0.74200
O1945       O  0.78622949  0.48141250  0.96635168    -0.39200
O1946       O  0.78177560  0.49021655  0.02255637    -0.39200
O1947       O  0.82784925  0.31838707  0.96906159    -0.39900
O1948       O  0.83356279  0.31198465  0.02516660    -0.39900
C1949       C  0.70601538  0.39856592  0.04852479    -0.12200
C1950       C  0.70586954  0.37278993  0.02228022     0.04800
C1951       C  0.67126215  0.36668183  0.00574343    -0.07500
C1952       C  0.64410599  0.39231037  0.00681101    -0.08300
C1953       C  0.64945078  0.42291533  0.02545059    -0.02800
C1954       C  0.67890523  0.42445078  0.04941683     0.04000
N1955       N  0.68352348  0.45293675  0.07274646     0.66500
H1956       H  0.72979466  0.40190072  0.06482788     0.15400
H1957       H  0.61883213  0.38840690  0.99213281     0.15100
N1958       N  0.66189494  0.33492957  0.98910201     0.74200
O1959       O  0.67432505  0.44999386  0.10436636    -0.39200
O1960       O  0.70583675  0.47580317  0.06479724    -0.39200
O1961       O  0.65570007  0.33473411  0.95650077    -0.39900
O1962       O  0.64561605  0.31327970  0.00733204    -0.39900
C1963       C  0.29721818  0.97676921  0.74541914    -0.12200
C1964       C  0.33612020  0.97206565  0.74157323     0.04800
C1965       C  0.34781523  0.93817103  0.73192769    -0.07500
C1966       C  0.32275359  0.91168073  0.72947458    -0.08300
C1967       C  0.28556643  0.91544197  0.73874758    -0.02800
C1968       C  0.27268179  0.94899327  0.74633792     0.04000
N1969       N  0.23470816  0.95593812  0.75325399     0.66500
H1970       H  0.28475297  0.00188588  0.74814573     0.15400
H1971       H  0.33355022  0.88723666  0.72056394     0.15100
N1972       N  0.38543498  0.92885252  0.72582866     0.74200
O1973       O  0.22467928  0.96058012  0.78456457    -0.39200
O1974       O  0.21417842  0.96680668  0.72875418    -0.39200
O1975       O  0.40155912  0.90983647  0.74798975    -0.39900
O1976       O  0.39649841  0.92768706  0.69455521    -0.39900
C1977       C  0.34742998  0.06348260  0.72578533    -0.12200
C1978       C  0.34308579  0.03773475  0.75132573     0.04800
C1979       C  0.31889122  0.04701879  0.77980241    -0.07500
C1980       C  0.29809392  0.07807420  0.77918627    -0.08300
C1981       C  0.30025318  0.10090684  0.75125362    -0.02800
C1982       C  0.32548513  0.09333239  0.72458603     0.04000
N1983       N  0.33124847  0.11697134  0.69697147     0.66500
H1984       H  0.36887024  0.06202893  0.70657117     0.15400
H1985       H  0.28070594  0.08478690  0.80127698     0.15100
N1986       N  0.31606050  0.02647124  0.81051432     0.74200
O1987       O  0.35642768  0.13846618  0.70033755    -0.39200
O1988       O  0.31898526  0.11011514  0.66671189    -0.39200
O1989       O  0.33430101  0.03497263  0.83740355    -0.39900
O1990       O  0.28736074  0.00951813  0.81477109    -0.39900
C1991       C  0.37990220  0.96705267  0.80495487    -0.12200
C1992       C  0.38588180  0.99652066  0.78423901     0.04800
C1993       C  0.40782361  0.02249051  0.80027138    -0.07500
C1994       C  0.42203893  0.01816911  0.83448289    -0.08300
C1995       C  0.41490534  0.98914044  0.85471578    -0.02800
C1996       C  0.39397583  0.96318503  0.83916082     0.04000
N1997       N  0.38388408  0.93378830  0.85851250     0.66500
H1998       H  0.36233230  0.94687856  0.79613292     0.15400
H1999       H  0.43795532  0.03870294  0.84584369     0.15100
N2000       N  0.41262507  0.05525664  0.78446638     0.74200
O2001       O  0.35365246  0.93452944  0.87452532    -0.39200
O2002       O  0.39888869  0.90514618  0.85114895    -0.39200
O2003       O  0.39261359  0.08017901  0.79479759    -0.39900
O2004       O  0.44320877  0.06180148  0.77109510    -0.39900
C2005       C  0.37413497  0.00450561  0.68186189    -0.12200
C2006       C  0.39153845  0.00156381  0.71501313     0.04800
C2007       C  0.43118284  0.99820707  0.71411008    -0.07500
C2008       C  0.45058072  0.00239617  0.68203032    -0.08300
C2009       C  0.43240088  0.00808647  0.64977619    -0.02800
C2010       C  0.39332756  0.00897429  0.65050637     0.04000
N2011       N  0.37189929  0.01611295  0.61973495     0.66500
H2012       H  0.34434068  0.00578602  0.68052924     0.15400
H2013       H  0.48021312  0.99876254  0.68204340     0.15100
N2014       N  0.45246036  0.98578013  0.74332426     0.74200
O2015       O  0.35036175  0.99361748  0.60829864    -0.39200
O2016       O  0.36537196  0.04702421  0.61199940    -0.39200
O2017       O  0.45596864  0.95381104  0.74699582    -0.39900
O2018       O  0.47769332  0.00411768  0.75560370    -0.39900
C2019       C  0.43283299  0.79068092  0.11392556    -0.12200
C2020       C  0.45825763  0.76237121  0.11775147     0.04800
C2021       C  0.44588331  0.73480356  0.13847269    -0.07500
C2022       C  0.41300078  0.73820584  0.15733456    -0.08300
C2023       C  0.38934087  0.76723657  0.15487671    -0.02800
C2024       C  0.39960209  0.79358146  0.13261002     0.04000
N2025       N  0.37570797  0.82270456  0.12720860     0.66500
H2026       H  0.43739857  0.81075603  0.09544063     0.15400
H2027       H  0.40534849  0.71680365  0.17322232     0.15100
N2028       N  0.46375645  0.70163120  0.13805377     0.74200
O2029       O  0.37853222  0.84872083  0.14691050    -0.39200
O2030       O  0.34805647  0.82017080  0.10719948    -0.39200
O2031       O  0.47792937  0.69021256  0.16599588    -0.39900
O2032       O  0.45361625  0.68019097  0.11513312    -0.39900
C2033       C  0.52433739  0.70135378  0.07822759    -0.12200
C2034       C  0.49626487  0.72692933  0.07406492     0.04800
C2035       C  0.46876086  0.71992455  0.04794680    -0.07500
C2036       C  0.47180872  0.69029926  0.02653543    -0.08300
C2037       C  0.50195021  0.66746986  0.02951988    -0.02800
C2038       C  0.52864830  0.67371564  0.05525774     0.04000
N2039       N  0.55957622  0.65087862  0.06002529     0.66500
H2040       H  0.54334723  0.70134900  0.10003414     0.15400
H2041       H  0.44975820  0.68446759  0.00828251     0.15100
N2042       N  0.43679270  0.74156755  0.04344305     0.74200
O2043       O  0.58998976  0.65859824  0.04694054    -0.39200
O2044       O  0.55924290  0.62959332  0.08464747    -0.39200
O2045       O  0.43369303  0.75906741  0.01590769    -0.39900
O2046       O  0.40793111  0.73426412  0.05959078    -0.39900
C2047       C  0.50459393  0.79126624  0.03705608    -0.12200
C2048       C  0.50079833  0.79296681  0.07434372     0.04800
C2049       C  0.50378885  0.82601636  0.09016563    -0.07500
C2050       C  0.50505192  0.85490539  0.06974156    -0.08300
C2051       C  0.50658275  0.85303654  0.03329834    -0.02800
C2052       C  0.50664469  0.82101422  0.01664189     0.04000
N2053       N  0.51002657  0.81838275  0.97940997     0.66500
H2054       H  0.50688512  0.76715573  0.02312084     0.15400
H2055       H  0.50492368  0.87955957  0.08309139     0.15100
N2056       N  0.50582256  0.83152441  0.12716105     0.74200
O2057       O  0.54089724  0.82284148  0.96555127    -0.39200
O2058       O  0.48139570  0.81948031  0.96048610    -0.39200
O2059       O  0.53727911  0.83550159  0.14067770    -0.39900
O2060       O  0.47848635  0.84564611  0.14211903    -0.39900
C2061       C  0.68728837  0.88585043  0.99461664    -0.12200
C2062       C  0.72093302  0.90309162  0.99099209     0.04800
C2063       C  0.71874129  0.93967999  0.98690704    -0.07500
C2064       C  0.68427904  0.95622524  0.98483730    -0.08300
C2065       C  0.65211901  0.93830929  0.98931314    -0.02800
C2066       C  0.65364254  0.90297606  0.99487360     0.04000
N2067       N  0.62129169  0.88389380  0.00096451     0.66500
H2068       H  0.68718428  0.85824455  0.99744908     0.15400
H2069       H  0.68271722  0.98384671  0.98192860     0.15100
N2070       N  0.74971481  0.96151615  0.98717646     0.74200
O2071       O  0.60641468  0.86843826  0.97552691    -0.39200
O2072       O  0.61471229  0.87439363  0.03174331    -0.39200
O2073       O  0.75579813  0.97861518  0.96002421    -0.39900
O2074       O  0.76121800  0.97290791  0.01623943    -0.39900
C2075       C  0.80052946  0.91490827  0.96023339    -0.12200
C2076       C  0.79248410  0.89815068  0.99195734     0.04800
C2077       C  0.82076189  0.89708135  0.01845800    -0.07500
C2078       C  0.85195818  0.91628568  0.01422174    -0.08300
C2079       C  0.85808815  0.93416460  0.98355077    -0.02800
C2080       C  0.83286283  0.93257104  0.95575495     0.04000
N2081       N  0.83894240  0.94934481  0.92328141     0.66500
H2082       H  0.78089509  0.91491154  0.93869712     0.15400
H2083       H  0.87290625  0.91566420  0.03467744     0.15100
N2084       N  0.82170242  0.87417420  0.04761927     0.74200
O2085       O  0.84823428  0.93149194  0.89688376    -0.39200
O2086       O  0.82547944  0.97908194  0.91872109    -0.39200
O2087       O  0.83604576  0.84470104  0.04330928    -0.39900
O2088       O  0.82189913  0.88677362  0.07822783    -0.39900
C2089       C  0.73914810  0.85984882  0.09139537    -0.12200
C2090       C  0.74241402  0.82427340  0.09204039     0.04800
C2091       C  0.74688335  0.80602520  0.06020764    -0.07500
C2092       C  0.74978187  0.82375472  0.02871859    -0.08300
C2093       C  0.75093957  0.85979832  0.02801181    -0.02800
C2094       C  0.74330864  0.87784292  0.06036227     0.04000
N2095       N  0.73879956  0.91438513  0.06266678     0.66500
H2096       H  0.73474419  0.87413447  0.11561798     0.15400
H2097       H  0.75099089  0.80866524  0.00490133     0.15100
N2098       N  0.74762453  0.76943550  0.05900532     0.74200
O2099       O  0.70650464  0.92690041  0.06419864    -0.39200
O2100       O  0.76452571  0.93162294  0.07575142    -0.39200
O2101       O  0.71948915  0.75425885  0.04789603    -0.39900
O2102       O  0.77837721  0.75380225  0.05808119    -0.39900
C2103       C  0.68698163  0.92680852  0.21540104    -0.12200
C2104       C  0.70698752  0.91770582  0.24560944     0.04800
C2105       C  0.70443855  0.94030685  0.27468105    -0.07500
C2106       C  0.67939066  0.96873831  0.27386386    -0.08300
C2107       C  0.65525508  0.97539257  0.24504702    -0.02800
C2108       C  0.66181961  0.95451727  0.21417649     0.04000
N2109       N  0.64594687  0.96087529  0.18022241     0.66500
H2110       H  0.69036496  0.91143161  0.19172368     0.15400
H2111       H  0.67763403  0.98517472  0.29691018     0.15100
N2112       N  0.72634921  0.93485173  0.30544946     0.74200
O2113       O  0.66409462  0.97804085  0.15895153    -0.39200
O2114       O  0.62523092  0.93848598  0.16722912    -0.39200
O2115       O  0.75476728  0.95235566  0.30995722    -0.39900
O2116       O  0.71237213  0.92059426  0.33150831    -0.39900
C2117       C  0.92568223  0.79064938  0.32911764    -0.12200
C2118       C  0.89519013  0.77023709  0.33582195     0.04800
C2119       C  0.90051590  0.74365559  0.36037059    -0.07500
C2120       C  0.93529606  0.73592572  0.37455015    -0.08300
C2121       C  0.96710042  0.75488268  0.36735224    -0.02800
C2122       C  0.96059740  0.78441411  0.34563419     0.04000
N2123       N  0.98726778  0.81062109  0.34312843     0.66500
H2124       H  0.92234837  0.81206736  0.31146599     0.15400
H2125       H  0.93574334  0.71612148  0.39406673     0.15100
N2126       N  0.86994898  0.72612295  0.37437610     0.74200
O2127       O  0.01157114  0.80845459  0.31980280    -0.39200
O2128       O  0.98007247  0.83958005  0.35682857    -0.39200
O2129       O  0.86768917  0.69420454  0.36953192    -0.39900
O2130       O  0.85268387  0.73997576  0.39952021    -0.39900
C2131       C  0.85059833  0.57076914  0.24229934    -0.12200
C2132       C  0.83205984  0.54007923  0.24873378     0.04800
C2133       C  0.79247972  0.54283096  0.24929071    -0.07500
C2134       C  0.77448559  0.57534527  0.24498006    -0.08300
C2135       C  0.79422257  0.60497681  0.23789183    -0.02800
C2136       C  0.83266210  0.60155020  0.23463632     0.04000
N2137       N  0.85431932  0.62864898  0.22155440     0.66500
H2138       H  0.88037551  0.57061857  0.24174062     0.15400
H2139       H  0.74488882  0.57745944  0.24776406     0.15100
N2140       N  0.76948263  0.51418053  0.25451732     0.74200
O2141       O  0.88174966  0.63825103  0.23927597    -0.39200
O2142       O  0.85409985  0.63360276  0.18892540    -0.39200
O2143       O  0.75246605  0.51245033  0.28311221    -0.39900
O2144       O  0.75614589  0.49921140  0.22799798    -0.39900
C2145       C  0.56782396  0.75183263  0.17688155    -0.12200
C2146       C  0.60087994  0.74881693  0.15824264     0.04800
C2147       C  0.59961541  0.75413035  0.12192978    -0.07500
C2148       C  0.56593413  0.76012269  0.10481304    -0.08300
C2149       C  0.53156708  0.75989116  0.12234091    -0.02800
C2150       C  0.53349319  0.75816972  0.15995885     0.04000
N2151       N  0.50306601  0.76707142  0.18220387     0.66500
H2152       H  0.56891865  0.75128380  0.20527397     0.15400
H2153       H  0.56654536  0.76281833  0.07659003     0.15100
N2154       N  0.63252995  0.75368877  0.10173629     0.74200
O2155       O  0.49232135  0.74510381  0.20356436    -0.39200
O2156       O  0.49800837  0.79818374  0.19045816    -0.39200
O2157       O  0.64113514  0.72710140  0.08423393    -0.39900
O2158       O  0.64702924  0.78171848  0.09431201    -0.39900
C2159       C  0.70750454  0.57148789  0.48109752    -0.12200
C2160       C  0.71241642  0.60730705  0.48060147     0.04800
C2161       C  0.68019947  0.62847882  0.47381543    -0.07500
C2162       C  0.64603905  0.61375565  0.46798883    -0.08300
C2163       C  0.64191607  0.57858774  0.47012577    -0.02800
C2164       C  0.67280643  0.55736014  0.47723130     0.04000
N2165       N  0.66914509  0.52148027  0.48297777     0.66500
H2166       H  0.73018324  0.55359905  0.48472929     0.15400
H2167       H  0.62196076  0.63029189  0.46419042     0.15100
N2168       N  0.68091372  0.66514229  0.47379764     0.74200
O2169       O  0.67876595  0.50051098  0.45917446    -0.39200
O2170       O  0.66660079  0.51101556  0.51402138    -0.39200
O2171       O  0.67738744  0.68023956  0.44483551    -0.39900
O2172       O  0.67163324  0.68129035  0.50130012    -0.39900
C2173       C  0.78337488  0.57464826  0.52030340    -0.12200
C2174       C  0.78305643  0.59508766  0.48959023     0.04800
C2175       C  0.81253938  0.58857020  0.46558074    -0.07500
C2176       C  0.83680149  0.56060330  0.47091730    -0.08300
C2177       C  0.83906115  0.54329491  0.50284616    -0.02800
C2178       C  0.81138135  0.55013589  0.52760633     0.04000
N2179       N  0.81180496  0.53373019  0.56084900     0.66500
H2180       H  0.76204352  0.57855604  0.53966463     0.15400
H2181       H  0.85737730  0.55491532  0.45126494     0.15100
N2182       N  0.82129452  0.61110131  0.43753486     0.74200
O2183       O  0.82430976  0.54968553  0.58714896    -0.39200
O2184       O  0.79027515  0.50937364  0.56565150    -0.39200
O2185       O  0.83415150  0.64010941  0.44473970    -0.39900
O2186       O  0.82597344  0.59891975  0.40704694    -0.39900
C2187       C  0.75902749  0.68124740  0.45478464    -0.12200
C2188       C  0.75500169  0.64532900  0.45214316     0.04800
C2189       C  0.74817484  0.63142227  0.41762957    -0.07500
C2190       C  0.74932607  0.65258228  0.38838869    -0.08300
C2191       C  0.75435749  0.68778361  0.39175755    -0.02800
C2192       C  0.75863007  0.70229159  0.42534349     0.04000
N2193       N  0.76126434  0.73846470  0.43047734     0.66500
H2194       H  0.75952394  0.69419598  0.47982844     0.15400
H2195       H  0.74430738  0.64150934  0.36262116     0.15100
N2196       N  0.73532157  0.59725161  0.41170588     0.74200
O2197       O  0.73211913  0.75594584  0.43553348    -0.39200
O2198       O  0.79140349  0.75032095  0.44107906    -0.39200
O2199       O  0.70401835  0.59312513  0.39790578    -0.39900
O2200       O  0.75602497  0.57137315  0.41675670    -0.39900
C2201       C  0.62198496  0.54497431  0.80386455    -0.12200
C2202       C  0.61841993  0.51357721  0.78504480     0.04800
C2203       C  0.59237397  0.49066003  0.79903294    -0.07500
C2204       C  0.57929321  0.49526600  0.83332712    -0.08300
C2205       C  0.58837461  0.52376530  0.85410740    -0.02800
C2206       C  0.60806937  0.54989983  0.83800824     0.04000
N2207       N  0.61586753  0.58105642  0.85621118     0.66500
H2208       H  0.63671035  0.56598132  0.79293600     0.15400
H2209       H  0.56155024  0.47600845  0.84380075     0.15100
N2210       N  0.58000676  0.46136847  0.78004586     0.74200
O2211       O  0.64629573  0.58358971  0.87206744    -0.39200
O2212       O  0.59811915  0.60800944  0.84800979    -0.39200
O2213       O  0.58891828  0.43200248  0.79134009    -0.39900
O2214       O  0.55081166  0.46461178  0.76211992    -0.39900
C2215       C  0.59502605  0.53196755  0.71089194    -0.12200
C2216       C  0.61434171  0.50162832  0.71968778     0.04800
C2217       C  0.60408353  0.47152563  0.69946039    -0.07500
C2218       C  0.57931596  0.47444269  0.67054781    -0.08300
C2219       C  0.56409618  0.50596139  0.65993246    -0.02800
C2220       C  0.57242756  0.53475857  0.68097327     0.04000
N2221       N  0.56021640  0.56810990  0.67163988     0.66500
H2222       H  0.59975094  0.55504923  0.72620503     0.15400
H2223       H  0.57309026  0.45166296  0.65530225     0.15100
N2224       N  0.61662711  0.43735087  0.70731270     0.74200
O2225       O  0.53104029  0.57977707  0.68548555    -0.39200
O2226       O  0.58456482  0.58867449  0.66256437    -0.39200
O2227       O  0.59447014  0.41798220  0.72218426    -0.39900
O2228       O  0.63976462  0.42327989  0.68696737    -0.39900
C2229       C  0.70977069  0.42702805  0.73408048    -0.12200
C2230       C  0.70498980  0.40733550  0.76421488     0.04800
C2231       C  0.68445160  0.42176902  0.79202891    -0.07500
C2232       C  0.66618754  0.45313430  0.78791287    -0.08300
C2233       C  0.66598954  0.47096371  0.75597658    -0.02800
C2234       C  0.69135765  0.45885647  0.72997600     0.04000
N2235       N  0.70050354  0.47913452  0.70031324     0.66500
H2236       H  0.72701623  0.41729647  0.71300871     0.15400
H2237       H  0.65338608  0.46365887  0.81111414     0.15100
N2238       N  0.68269966  0.40577412  0.82546201     0.74200
O2239       O  0.73172439  0.49249118  0.69910041    -0.39200
O2240       O  0.67960955  0.48064216  0.67377229    -0.39200
O2241       O  0.70513862  0.41472544  0.84906559    -0.39900
O2242       O  0.65279994  0.39286295  0.83446845    -0.39900
C2243       C  0.72840695  0.33923195  0.91329668    -0.12200
C2244       C  0.73816386  0.30471551  0.90938062     0.04800
C2245       C  0.74953114  0.28586130  0.93885238    -0.07500
C2246       C  0.75025936  0.30166445  0.97170169    -0.08300
C2247       C  0.74001980  0.33651544  0.97653884    -0.02800
C2248       C  0.73034400  0.35567141  0.94575748     0.04000
N2249       N  0.72327868  0.39194792  0.94593525     0.66500
H2250       H  0.72083331  0.35427865  0.89050026     0.15400
H2251       H  0.76136477  0.28648186  0.99294145     0.15100
N2252       N  0.76122900  0.25074192  0.93603711     0.74200
O2253       O  0.69038454  0.40272338  0.94328275    -0.39200
O2254       O  0.74806878  0.41074929  0.93434401    -0.39200
O2255       O  0.79520722  0.24338763  0.93705202    -0.39900
O2256       O  0.73853784  0.22772646  0.94243919    -0.39900
C2257       C  0.57216975  0.21473499  0.84260116    -0.12200
C2258       C  0.60252174  0.23537079  0.84918018     0.04800
C2259       C  0.59893907  0.26102725  0.87554930    -0.07500
C2260       C  0.56533633  0.26760476  0.89201767    -0.08300
C2261       C  0.53360472  0.24836196  0.88493411    -0.02800
C2262       C  0.53852141  0.22009330  0.86067339     0.04000
N2263       N  0.51030533  0.19584664  0.85426247     0.66500
H2264       H  0.57429100  0.19452415  0.82296038     0.15400
H2265       H  0.56570559  0.28671517  0.91269303     0.15100
N2266       N  0.62996852  0.27984846  0.88761973     0.74200
O2267       O  0.49278318  0.19707852  0.82557983    -0.39200
O2268       O  0.51269350  0.16753163  0.86985507    -0.39200
O2269       O  0.63117299  0.31150442  0.88147093    -0.39900
O2270       O  0.64986175  0.26749830  0.91186495    -0.39900
C2271       C  0.91933942  0.23811387  0.69282663    -0.12200
C2272       C  0.89682379  0.26791724  0.69024041     0.04800
C2273       C  0.91103972  0.29620253  0.67292473    -0.07500
C2274       C  0.94257720  0.29188459  0.65277290    -0.08300
C2275       C  0.96087174  0.25961038  0.64865668    -0.02800
C2276       C  0.95197721  0.23435933  0.67356305     0.04000
N2277       N  0.97645201  0.20600649  0.68115512     0.66500
H2278       H  0.91118610  0.21718495  0.70924765     0.15400
H2279       H  0.95273134  0.31478563  0.64108208     0.15100
N2280       N  0.89434163  0.32963721  0.67538867     0.74200
O2281       O  0.99676174  0.20718972  0.70812098    -0.39200
O2282       O  0.97666644  0.17918294  0.66239865    -0.39200
O2283       O  0.90736759  0.35073457  0.69724497    -0.39900
O2284       O  0.87589129  0.34090418  0.64964649    -0.39900
C2285       C  0.71710297  0.18497735  0.53885419    -0.12200
C2286       C  0.74545847  0.16091324  0.53002164     0.04800
C2287       C  0.77410776  0.15566927  0.55558307    -0.07500
C2288       C  0.77241050  0.17333383  0.58775735    -0.08300
C2289       C  0.74327861  0.19613628  0.59615654    -0.02800
C2290       C  0.71587886  0.20254121  0.57065797     0.04000
N2291       N  0.68649352  0.22698975  0.57605087     0.66500
H2292       H  0.69520869  0.19074350  0.52029792     0.15400
H2293       H  0.79395013  0.16803918  0.60689855     0.15100
N2294       N  0.80440729  0.13194467  0.55140060     0.74200
O2295       O  0.69011067  0.25722118  0.56543509    -0.39200
O2296       O  0.65462826  0.21642298  0.58192899    -0.39200
O2297       O  0.83602110  0.14411989  0.54829647    -0.39900
O2298       O  0.80222806  0.10258095  0.56457097    -0.39900
C2299       C  0.86832482  0.00585621  0.68110567    -0.12200
C2300       C  0.88635286  0.00537104  0.71416390     0.04800
C2301       C  0.92604080  0.00689968  0.71294688    -0.07500
C2302       C  0.94465345  0.00666021  0.68034490    -0.08300
C2303       C  0.92588006  0.00610419  0.64813370    -0.02800
C2304       C  0.88700730  0.00535209  0.64909326     0.04000
N2305       N  0.86550802  0.00193795  0.61776768     0.66500
H2306       H  0.83856448  0.00492095  0.68005372     0.15400
H2307       H  0.97436088  0.00836524  0.68034017     0.15100
N2308       N  0.94884568  0.01095846  0.74333634     0.74200
O2309       O  0.86058209  0.97226630  0.60536536    -0.39200
O2310       O  0.84284786  0.02566285  0.60987601    -0.39200
O2311       O  0.97072979  0.98660292  0.75119456    -0.39900
O2312       O  0.95751004  0.04086770  0.75251528    -0.39900
C2313       C  0.89950524  0.03351018  0.83943664    -0.12200
C2314       C  0.92484287  0.00704479  0.84611274     0.04800
C2315       C  0.92595854  0.97863069  0.82262614    -0.07500
C2316       C  0.90433652  0.97888935  0.79205667    -0.08300
C2317       C  0.88031521  0.00643885  0.78361769    -0.02800
C2318       C  0.87547692  0.03257023  0.81054042     0.04000
N2319       N  0.84414371  0.05556250  0.81291074     0.66500
H2320       H  0.89568917  0.05376119  0.85886717     0.15400
H2321       H  0.90699285  0.95725044  0.77411062     0.15100
N2322       N  0.94845514  0.94884769  0.82921416     0.74200
O2323       O  0.81589609  0.04520731  0.82805552    -0.39200
O2324       O  0.84961548  0.08737182  0.81391861    -0.39200
O2325       O  0.93311268  0.92170392  0.83827388    -0.39900
O2326       O  0.98023942  0.94678110  0.81625198    -0.39900
C2327       C  0.79445202  0.03406958  0.74168457    -0.12200
C2328       C  0.83339280  0.03621382  0.74296423     0.04800
C2329       C  0.84796726  0.06960864  0.73953886    -0.07500
C2330       C  0.82476580  0.09839130  0.73990701    -0.08300
C2331       C  0.78635589  0.09647702  0.74137263    -0.02800
C2332       C  0.77109253  0.06365344  0.74159724     0.04000
N2333       N  0.73225545  0.05957682  0.74008155     0.66500
H2334       H  0.78147652  0.00953122  0.74051665     0.15400
H2335       H  0.83771754  0.12304609  0.73981915     0.15100
N2336       N  0.88651184  0.07565452  0.73689471     0.74200
O2337       O  0.71720258  0.05360485  0.71078516    -0.39200
O2338       O  0.71550687  0.05233276  0.76774690    -0.39200
O2339       O  0.89921484  0.08173144  0.70697106    -0.39900
O2340       O  0.90324101  0.08739098  0.76337817    -0.39900
C2341       C  0.72197322  0.57016134  0.77147907    -0.12200
C2342       C  0.72124235  0.59048108  0.74160766     0.04800
C2343       C  0.70048104  0.57878646  0.71258620    -0.07500
C2344       C  0.67572839  0.55196206  0.71580893    -0.08300
C2345       C  0.67290172  0.53316598  0.74701607    -0.02800
C2346       C  0.70005030  0.54079641  0.77363303     0.04000
N2347       N  0.70668839  0.51885527  0.80283193     0.66500
H2348       H  0.73932341  0.57718460  0.79352491     0.15400
H2349       H  0.65993979  0.54526981  0.69275835     0.15100
N2350       N  0.70328725  0.59492159  0.67948539     0.74200
O2351       O  0.73184868  0.49614766  0.80012320    -0.39200
O2352       O  0.69788369  0.52937966  0.83307071    -0.39200
O2353       O  0.73412674  0.59653756  0.66469172    -0.39900
O2354       O  0.67657306  0.61317006  0.66880373    -0.39900
C2355       C  0.78316510  0.67832786  0.56749259    -0.12200
C2356       C  0.75288800  0.67631924  0.59014626     0.04800
C2357       C  0.72252010  0.65749505  0.57802532    -0.07500
C2358       C  0.72315886  0.64167262  0.54512233    -0.08300
C2359       C  0.75248471  0.64423953  0.52136662    -0.02800
C2360       C  0.78370402  0.66239910  0.53410983     0.04000
N2361       N  0.81691419  0.66437397  0.51449237     0.66500
H2362       H  0.80747112  0.69175909  0.57597079     0.15400
H2363       H  0.69966634  0.62624439  0.53931095     0.15100
N2364       N  0.69048796  0.65253683  0.59848571     0.74200
O2365       O  0.82490430  0.69277164  0.50135668    -0.39200
O2366       O  0.84279629  0.64329549  0.52127272    -0.39200
O2367       O  0.66548453  0.67546415  0.59784453    -0.39900
O2368       O  0.68118509  0.62204696  0.60336920    -0.39900
C2369       C  0.58074180  0.75900136  0.68954596    -0.12200
C2370       C  0.61075914  0.76584222  0.66789816     0.04800
C2371       C  0.60543988  0.76520806  0.63167697    -0.07500
C2372       C  0.57047028  0.75963922  0.61768895    -0.08300
C2373       C  0.53850212  0.75667209  0.63879035    -0.02800
C2374       C  0.54497031  0.75379455  0.67569080     0.04000
N2375       N  0.51767018  0.74207366  0.69928029     0.66500
H2376       H  0.58552167  0.75592468  0.71743029     0.15400
H2377       H  0.56781061  0.76011720  0.58959689     0.15100
N2378       N  0.63567711  0.77007844  0.60866624     0.74200
O2379       O  0.51441810  0.71018103  0.70275249    -0.39200
O2380       O  0.50808238  0.76128678  0.72457924    -0.39200
O2381       O  0.65664880  0.74498627  0.60089720    -0.39900
O2382       O  0.64604019  0.80007042  0.60277614    -0.39900
C2383       C  0.79579041  0.92639466  0.77189921    -0.12200
C2384       C  0.80245584  0.90274571  0.74478191     0.04800
C2385       C  0.82800432  0.91138999  0.71915119    -0.07500
C2386       C  0.84616342  0.94279313  0.72099301    -0.08300
C2387       C  0.83851832  0.96845860  0.74697591    -0.02800
C2388       C  0.81312384  0.95847324  0.77347206     0.04000
N2389       N  0.80558881  0.97922180  0.80364911     0.66500
H2390       H  0.77763815  0.91947929  0.79293370     0.15400
H2391       H  0.86747569  0.94562853  0.70191344     0.15100
N2392       N  0.83728890  0.88782224  0.69151806     0.74200
O2393       O  0.77381147  0.99266291  0.80649841    -0.39200
O2394       O  0.82366494  0.97290488  0.83133008    -0.39200
O2395       O  0.82309777  0.89228345  0.66156134    -0.39900
O2396       O  0.86598191  0.86920286  0.69439422    -0.39900
C2397       C  0.78877462  0.81568469  0.91740395    -0.12200
C2398       C  0.76199429  0.82162445  0.89165798     0.04800
C2399       C  0.73248458  0.84410653  0.89899762    -0.07500
C2400       C  0.73046730  0.86080585  0.93130908    -0.08300
C2401       C  0.75671611  0.85523695  0.95871340    -0.02800
C2402       C  0.78671189  0.83195356  0.95046093     0.04000
N2403       N  0.81687662  0.82578980  0.97394650     0.66500
H2404       H  0.81164415  0.79817434  0.91184926     0.15400
H2405       H  0.70855624  0.87977388  0.93298758     0.15100
N2406       N  0.70503277  0.85197961  0.87305264     0.74200
O2407       O  0.81823853  0.79782686  0.99026148    -0.39200
O2408       O  0.84674030  0.84039655  0.96794170    -0.39200
O2409       O  0.67312474  0.84057898  0.87662443    -0.39900
O2410       O  0.70956288  0.87711331  0.85315662    -0.39900
C2411       C  0.97027159  0.73718032  0.84764039    -0.12200
C2412       C  0.96764148  0.73979378  0.88467838     0.04800
C2413       C  0.93276459  0.73097788  0.89896487    -0.07500
C2414       C  0.90188996  0.72593262  0.87679848    -0.08300
C2415       C  0.90470419  0.72664849  0.84016517    -0.02800
C2416       C  0.93976832  0.73083389  0.82583023     0.04000
N2417       N  0.94536224  0.72771259  0.78893089     0.66500
H2418       H  0.99649280  0.73806000  0.83477940     0.15400
H2419       H  0.87529965  0.72187018  0.88845170     0.15100
N2420       N  0.92828720  0.72532008  0.93571020     0.74200
O2421       O  0.94898390  0.75449828  0.77121501    -0.39200
O2422       O  0.95704022  0.69938980  0.77657645    -0.39200
O2423       O  0.92536642  0.75020041  0.95697961    -0.39900
O2424       O  0.92252393  0.69540744  0.94627628    -0.39900
loop_ 
_geom_bond_atom_site_label_1 
_geom_bond_atom_site_label_2 
_geom_bond_distance 
_geom_bond_site_symmetry_2 
_ccdc_geom_bond_type 
Zr1           O2   2.440       .  S
Zr1           O3   2.451       .  S
Zr1           O4   2.442       .  S
Zr1           O7   2.420       .  S
Zr1           O9   2.381       .  S
Zr1          O10   2.387       .  S
Zr1          O11   2.405       .  S
Zr1          O12   2.410       .  S
O2           H58   0.990       .  S
O2           H66   0.990       .  S
O3           C23   1.287       .  A
O4           C25   1.285       .  A
O5          Zr15   2.503       .  S
O5           C24   1.298       .  A
O6          Zr14   2.490       .  S
O6           C25   1.295       .  A
O7           C24   1.282       .  A
O8          Zr16   2.399       .  S
O8           C23   1.277       .  A
O9          Zr14   2.404       .  S
O9          Zr16   2.390       .  S
O10         Zr15   2.398       .  S
O10         Zr16   2.372       .  S
O10          H45   0.966       .  S
O11         Zr14   2.404       .  S
O11         Zr31   2.393       .  S
O11          H48   0.965       .  S
O12         Zr15   2.399       .  S
O12         Zr31   2.410       .  S
Zr13         O38   2.445       .  S
Zr13         O32   2.452       .  S
Zr13         O40   2.401       .  S
Zr13         O28   2.405       .  S
Zr13         O19   2.405       .  S
Zr13         O20   2.395       .  S
Zr13         O21   2.378       .  S
Zr13         O22   2.384       .  S
Zr14         O33   2.437       .  S
Zr14         O26   2.434       .  S
Zr14         O27   2.490       .  S
Zr14         O20   2.399       .  S
Zr14         O21   2.406       .  S
Zr15         O17   2.435       .  S
Zr15         O39   2.436       .  S
Zr15         O41   2.499       .  S
Zr15         O19   2.403       .  S
Zr15         O22   2.408       .  S
Zr16         O42   2.434       .  S
Zr16         O43   2.437       .  S
Zr16         O18   2.435       .  S
Zr16         O19   2.388       .  S
Zr16         O20   2.370       .  S
O17          H54   0.990       .  S
O18          H49   0.990       .  S
O18          H63   0.990       .  S
O20          H46   0.964       .  S
O21         Zr31   2.377       .  S
O22         Zr31   2.375       .  S
O22          H47   0.966       .  S
C23        C2398   1.470       .  S
C24        C2415   1.497       .  S
C25        C2384   1.497       .  S
O26          H62   0.990       .  S
O27          C29   1.295       .  A
O28          C29   1.278       .  A
C29        C2370   1.479       .  S
O30         Zr31   2.436       .  S
O30          H59   0.990       .  S
Zr31         O34   2.436       .  S
Zr31         O35   2.437       .  S
Zr31         O36   2.440       .  S
O32          C37   1.287       .  A
O33          H50   0.990       .  S
O33          H65   0.990       .  S
O34          H51   0.990       .  S
O35          H55   0.990       .  S
O35          H64   0.990       .  S
O36          C37   1.286       .  A
C37        C2356   1.506       .  S
O38          H57   0.988       .  S
O38          H61   0.990       .  S
O39          H53   0.990       .  S
O39          H60   0.990       .  S
O40          C44   1.279       .  A
O41          C44   1.296       .  A
O42          H52   0.990       .  S
O43          H56   0.990       .  S
C44        C2342   1.506       .  S
C67        C2300   1.602       .  S
C67        C2317   1.570       .  S
C67        C2328   1.568       .  S
C67        C2387   1.607   1_545  S
Zr68         O69   2.445       .  S
Zr68         O70   2.420       .  S
Zr68         O71   2.396       .  S
Zr68         O74   2.422       .  S
Zr68         O76   2.381       .  S
Zr68         O77   2.369       .  S
Zr68         O78   2.412       .  S
Zr68         O79   2.386       .  S
O69         H125   0.990       .  S
O69         H133   0.990       .  S
O70          C90   1.280       .  A
O71          C92   1.278       .  A
O72         Zr82   2.450       .  S
O72          C91   1.287       .  A
O73         Zr81   2.505       .  S
O73          C92   1.295       .  A
O74          C91   1.282       .  A
O75         Zr83   2.405       .  S
O75          C90   1.277       .  A
O76         Zr81   2.416       .  S
O76         Zr83   2.388       .  S
O77         Zr82   2.400       .  S
O77         Zr83   2.384       .  S
O77         H112   0.966       .  S
O78         Zr81   2.418       .  S
O78         Zr98   2.382       .  S
O78         H115   0.964       .  S
O79         Zr82   2.386       .  S
O79         Zr98   2.386       .  S
Zr80        O105   2.441       .  S
Zr80         O99   2.411       .  S
Zr80        O107   2.422       .  S
Zr80         O95   2.377       .  S
Zr80         O86   2.381       .  S
Zr80         O87   2.395       .  S
Zr80         O88   2.380       .  S
Zr80         O89   2.373       .  S
Zr81        O100   2.440       .  S
Zr81         O93   2.434       .  S
Zr81         O94   2.523       .  S
Zr81         O87   2.409       .  S
Zr81         O88   2.397       .  S
Zr82         O84   2.435       .  S
Zr82        O106   2.437       .  S
Zr82        O108   2.440       .  S
Zr82         O86   2.398       .  S
Zr82         O89   2.393       .  S
Zr83        O109   2.435       .  S
Zr83        O110   2.435       .  S
Zr83         O85   2.438       .  S
Zr83         O86   2.385       .  S
Zr83         O87   2.395       .  S
O84         H121   0.990       .  S
O85         H116   0.990       .  S
O85         H130   0.990       .  S
O87         H113   0.966       .  S
O88         Zr98   2.374       .  S
O89         Zr98   2.385       .  S
O89         H114   0.966       .  S
C90        C2289   1.484       .  S
C91        C2272   1.488       .  S
C92        C2331   1.498       .  S
O93         H129   0.990       .  S
O94          C96   1.301       .  A
O95          C96   1.274       .  A
C96        C2258   1.503       .  S
O97         Zr98   2.435       .  S
O97         H126   0.990       .  S
Zr98        O101   2.436       .  S
Zr98        O102   2.439       .  S
Zr98        O103   2.400       .  S
O99         C104   1.281       .  A
O100        H117   0.990       .  S
O100        H132   0.990       .  S
O101        H118   0.990       .  S
O102        H122   0.990       .  S
O102        H131   0.990       .  S
O103        C104   1.276       .  A
C104       C2244   1.462       .  S
O105        H124   0.988       .  S
O105        H128   0.990       .  S
O106        H120   0.990       .  S
O106        H127   0.990       .  S
O107        C111   1.282       .  A
O108        C111   1.286       .  A
O109        H119   0.990       .  S
O110        H123   0.989       .  S
C111       C2230   1.483       .  S
C134       C2202   1.591       .  S
C134       C2216   1.594       .  S
C134       C2233   1.552       .  S
C134       C2345   1.596       .  S
C135       C2160   1.571       .  S
C135       C2174   1.578       .  S
C135       C2188   1.560       .  S
C135       C2359   1.582       .  S
Zr136       O137   2.446       .  S
Zr136       O138   2.446       .  S
Zr136       O139   2.414       .  S
Zr136       O142   2.411       .  S
Zr136       O144   2.383       .  S
Zr136       O145   2.377       .  S
Zr136       O146   2.410       .  S
Zr136       O147   2.403       .  S
O137        H193   0.991       .  S
O137        H201   0.991       .  S
O138        C158   1.286       .  A
O139        C160   1.281       .  A
O140       Zr150   2.496       .  S
O140        C159   1.296       .  A
O141       Zr149   2.509       .  S
O141        C160   1.296       .  A
O142        C159   1.279       .  A
O143       Zr151   2.411       .  S
O143        C158   1.277       .  A
O144       Zr149   2.423       .  S
O144       Zr151   2.391       .  S
O145       Zr150   2.394       .  S
O145       Zr151   2.380       .  S
O145        H180   0.966       .  S
O146       Zr149   2.420       .  S
O146       Zr166   2.389       .  S
O146        H183   0.965       .  S
O147       Zr150   2.400       .  S
O147       Zr166   2.403       .  S
Zr148       O173   2.434       .  S
Zr148       O167   2.420       .  S
Zr148       O175   2.402       .  S
Zr148       O163   2.410       .  S
Zr148       O154   2.392       .  S
Zr148       O155   2.398       .  S
Zr148       O156   2.373       .  S
Zr148       O157   2.381       .  S
Zr149       O168   2.435       .  S
Zr149       O161   2.435       .  S
Zr149       O162   2.526       .  S
Zr149       O155   2.410       .  S
Zr149       O156   2.408       .  S
Zr150       O152   2.435       .  S
Zr150       O174   2.439       .  S
Zr150       O176   2.496       .  S
Zr150       O154   2.394       .  S
Zr150       O157   2.405       .  S
Zr151       O177   2.436       .  S
Zr151       O178   2.436       .  S
Zr151       O153   2.435       .  S
Zr151       O154   2.383       .  S
Zr151       O155   2.398       .  S
O152        H189   0.990       .  S
O153        H184   0.990       .  S
O153        H198   0.990       .  S
O155        H181   0.966       .  S
O156       Zr166   2.380       .  S
O157       Zr166   2.381       .  S
O157        H182   0.966       .  S
C158       C2090   1.473       .  S
C159       C2146   1.490       .  S
C160       C2104   1.510       .  S
O161        H197   0.990       .  S
O162        C164   1.301       .  A
O163        C164   1.278       .  A
C164       C2118   1.519       .  S
O165       Zr166   2.437       .  S
O165        H194   0.990       .  S
Zr166       O169   2.435       .  S
Zr166       O170   2.438       .  S
Zr166       O171   2.435       .  S
O167        C172   1.280       .  A
O168        H185   0.990       .  S
O168        H200   0.990       .  S
O169        H186   0.990       .  S
O170        H190   0.990       .  S
O170        H199   0.990       .  S
O171        C172   1.282       .  A
C172       C2191   1.471       .  S
O173        H192   0.991       .  S
O173        H196   0.989       .  S
O174        H188   0.990       .  S
O174        H195   0.990       .  S
O175        C179   1.280       .  A
O176        C179   1.296       .  A
O177        H187   0.990       .  S
O178        H191   0.990       .  S
C179       C2135   1.495       .  S
C202       C2062   1.561       .  S
C202       C2076   1.543       .  S
C202       C2093   1.561   1_556  S
C202       C2401   1.589       .  S
C203       C2020   1.581       .  S
C203       C2034   1.580       .  S
C203       C2048   1.571       .  S
C203       C2149   1.589       .  S
C204       C1964   1.598   1_545  S
C204       C1978   1.594       .  S
C204       C1992   1.580   1_545  S
C204       C2006   1.604       .  S
C205       C1922   1.564       .  S
C205       C1936   1.560       .  S
C205       C1950   1.555       .  S
C205       C2247   1.551   1_554  S
C206       C1866   1.562       .  S
C206       C1880   1.556       .  S
C206       C1894   1.555       .  S
C206       C1911   1.558   1_556  S
C207       C1810   1.570       .  S
C207       C1824   1.562       .  S
C207       C1841   1.603       .  S
C207       C1852   1.602       .  S
C208       C1771   1.596       .  S
C208       C1785   1.572       .  S
C208       C1796   1.591       .  S
C208       C2286   1.565       .  S
C209       C1726   1.572       .  S
C209       C1740   1.579       .  S
C209       C1754   1.577       .  S
C209       C2121   1.607   1_455  S
Zr210       O211   2.442       .  S
Zr210       O212   2.437       .  S
Zr210       O213   2.442       .  S
Zr210       O216   2.386       .  S
Zr210       O218   2.371       .  S
Zr210       O219   2.390       .  S
Zr210       O220   2.397       .  S
Zr210       O221   2.412       .  S
O211        H267   0.991       .  S
O211        H275   0.991       .  S
O212        C232   1.284       .  A
O213        C234   1.282       .  A
O214       Zr224   2.500       .  S
O214        C233   1.298       .  A
O215       Zr223   2.497       .  S
O215        C234   1.295       .  A
O216        C233   1.276       .  A
O217       Zr225   2.385       .  S
O217        C232   1.275       .  A
O218       Zr223   2.398       .  S
O218       Zr225   2.392       .  S
O219       Zr224   2.410       .  S
O219       Zr225   2.376       .  S
O219        H254   0.966       .  S
O220       Zr223   2.398       .  S
O220       Zr240   2.390       .  S
O220        H257   0.965       .  S
O221       Zr224   2.403       .  S
O221       Zr240   2.394       .  S
Zr222       O247   2.444       .  S
Zr222       O241   2.415       .  S
Zr222       O249   2.420       .  S
Zr222       O237   2.414       .  S
Zr222       O228   2.392       .  S
Zr222       O229   2.404       .  S
Zr222       O230   2.387       .  S
Zr222       O231   2.382       .  S
Zr223       O242   2.437       .  S
Zr223       O235   2.435       .  S
Zr223       O236   2.465       .  S
Zr223       O229   2.418       .  S
Zr223       O230   2.412       .  S
Zr224       O226   2.435       .  S
Zr224       O248   2.436       .  S
Zr224       O250   2.515       .  S
Zr224       O228   2.402       .  S
Zr224       O231   2.405       .  S
Zr225       O251   2.437       .  S
Zr225       O252   2.436       .  S
Zr225       O227   2.440       .  S
Zr225       O228   2.388       .  S
Zr225       O229   2.370       .  S
O226        H263   0.990       .  S
O227        H258   0.990       .  S
O227        H272   0.990       .  S
O229        H255   0.964       .  S
O230       Zr240   2.377       .  S
O231       Zr240   2.379       .  S
O231        H256   0.966       .  S
C232       C1908   1.482       .  S
C233       C2023   1.501       .  S
C234       C1698   1.502       .  S
O235        H271   0.990       .  S
O236        C238   1.291       .  A
O237        C238   1.278       .  A
C238       C1729   1.467       .  S
O239       Zr240   2.437       .  S
O239        H268   0.990       .  S
Zr240       O243   2.436       .  S
Zr240       O244   2.437       .  S
Zr240       O245   2.430       .  S
O241        C246   1.278       .  A
O242        H259   0.990       .  S
O242        H274   0.990       .  S
O243        H260   0.990       .  S
O244        H264   0.990       .  S
O244        H273   0.990       .  S
O245        C246   1.285       .  A
C246       C1684   1.490       .  S
O247        H266   0.990       .  S
O247        H270   0.991       .  S
O248        H262   0.990       .  S
O248        H269   0.990       .  S
O249        C253   1.283       .  A
O250        C253   1.299       .  A
O251        H261   0.990       .  S
O252        H265   0.990       .  S
C253       C1715   1.517       .  S
C276       C1645   1.559       .  S
C276       C1656   1.577       .  S
C276       C1670   1.586       .  S
C276       C1687   1.569       .  S
C277       C1600   1.600       .  S
C277       C1614   1.594       .  S
C277       C1631   1.578       .  S
C277       C2132   1.580       .  S
Zr278       O279   2.446       .  S
Zr278       O280   2.450       .  S
Zr278       O281   2.439       .  S
Zr278       O284   2.413       .  S
Zr278       O286   2.383       .  S
Zr278       O287   2.395       .  S
Zr278       O288   2.406       .  S
Zr278       O289   2.398       .  S
O279        H335   0.991       .  S
O279        H343   0.990       .  S
O280        C300   1.286       .  A
O281        C302   1.285       .  A
O282       Zr292   2.464       .  S
O282        C301   1.285       .  A
O283       Zr291   2.473       .  S
O283        C302   1.290       .  A
O284        C301   1.279       .  A
O285       Zr293   2.441       .  S
O285        C300   1.286       .  A
O286       Zr291   2.422       .  S
O286       Zr293   2.379       .  S
O287       Zr292   2.402       .  S
O287       Zr293   2.372       .  S
O287        H322   0.965       .  S
O288       Zr291   2.418       .  S
O288       Zr308   2.401       .  S
O288        H325   0.965       .  S
O289       Zr292   2.408       .  S
O289       Zr308   2.372       .  S
Zr290       O315   2.439       .  S
Zr290       O309   2.430       .  S
Zr290       O317   2.389       .  S
Zr290       O305   2.401       .  S
Zr290       O296   2.396       .  S
Zr290       O297   2.410       .  S
Zr290       O298   2.371       .  S
Zr290       O299   2.373       .  S
Zr291       O310   2.435       .  S
Zr291       O303   2.436       .  S
Zr291       O304   2.513       .  S
Zr291       O297   2.408       .  S
Zr291       O298   2.390       .  S
Zr292       O294   2.435       .  S
Zr292       O316   2.437       .  S
Zr292       O318   2.500       .  S
Zr292       O296   2.382       .  S
Zr292       O299   2.382       .  S
Zr293       O319   2.436       .  S
Zr293       O320   2.438       .  S
Zr293       O295   2.436       .  S
Zr293       O296   2.405       .  S
Zr293       O297   2.404       .  S
O294        H331   0.990       .  S
O295        H326   0.990       .  S
O295        H340   0.990       .  S
O297        H323   0.965       .  S
O298       Zr308   2.372       .  S
O299       Zr308   2.382       .  S
O299        H324   0.966       .  S
C300       C1586   1.484       .  S
C301       C1925   1.473       .  S
C302       C1628   1.502       .  S
O303        H339   0.990       .  S
O304        C306   1.292       .  A
O305        C306   1.269       .  A
C306       C1768   1.505       .  S
O307       Zr308   2.435       .  S
O307        H336   0.990       .  S
Zr308       O311   2.435       .  S
Zr308       O312   2.437       .  S
Zr308       O313   2.417       .  S
O309        C314   1.286       .  A
O310        H327   0.990       .  S
O310        H342   0.990       .  S
O311        H328   0.990       .  S
O312        H332   0.990       .  S
O312        H341   0.990       .  S
O313        C314   1.281       .  A
C314       C1572   1.469       .  S
O315        H334   0.990       .  S
O315        H338   0.989       .  S
O316        H330   0.990       .  S
O316        H337   0.989       .  S
O317        C321   1.277       .  A
O318        C321   1.299       .  A
O319        H329   0.990       .  S
O320        H333   0.990       .  S
C321       C1558   1.503       .  S
C344       C1533   1.606       .  S
C344       C1544   1.579       .  S
C344       C1561   1.605       .  S
C344       C2107   1.582   1_545  S
C345       C1488   1.569       .  S
C345       C1502   1.557       .  S
C345       C1516   1.594       .  S
C345       C2261   1.590       .  S
Zr346       O347   2.436       .  S
Zr346       O348   2.419       .  S
Zr346       O349   2.427       .  S
Zr346       O352   2.419       .  S
Zr346       O354   2.383       .  S
Zr346       O355   2.380       .  S
Zr346       O356   2.407       .  S
Zr346       O357   2.396       .  S
O347        H403   0.990       .  S
O347        H411   0.989       .  S
O348        C368   1.277       .  A
O349        C370   1.283       .  A
O350       Zr360   2.485       .  S
O350        C369   1.293       .  A
O351       Zr359   2.458       .  S
O351        C370   1.289       .  A
O352        C369   1.281       .  A
O353       Zr361   2.401       .  S
O353        C368   1.280       .  A
O354       Zr359   2.404       .  S
O354       Zr361   2.377       .  S
O355       Zr360   2.401       .  S
O355       Zr361   2.378       .  S
O355        H390   0.966       .  S
O356       Zr359   2.414       .  S
O356       Zr376   2.365       .  S
O356        H393   0.964       .  S
O357       Zr360   2.398       .  S
O357       Zr376   2.385       .  S
Zr358       O383   2.443       .  S
Zr358       O377   2.441       .  S
Zr358       O385   2.411       .  S
Zr358       O373   2.428       .  S
Zr358       O364   2.402       .  S
Zr358       O365   2.400       .  S
Zr358       O366   2.372       .  S
Zr358       O367   2.388       .  S
Zr359       O378   2.437       .  S
Zr359       O371   2.435       .  S
Zr359       O372   2.479       .  S
Zr359       O365   2.398       .  S
Zr359       O366   2.396       .  S
Zr360       O362   2.433       .  S
Zr360       O384   2.438       .  S
Zr360       O386   2.479       .  S
Zr360       O364   2.391       .  S
Zr360       O367   2.405       .  S
Zr361       O387   2.436       .  S
Zr361       O388   2.435       .  S
Zr361       O363   2.440       .  S
Zr361       O364   2.392       .  S
Zr361       O365   2.384       .  S
O362        H399   0.990       .  S
O363        H394   0.990       .  S
O363        H408   0.990       .  S
O365        H391   0.964       .  S
O366       Zr376   2.385       .  S
O367       Zr376   2.382       .  S
O367        H392   0.966       .  S
C368       C1460   1.479       .  S
C369       C1446   1.505       .  S
C370       C1827   1.482       .  S
O371        H407   0.990       .  S
O372        C374   1.292       .  A
O373        C374   1.282       .  A
C374       C1519   1.482       .  S
O375       Zr376   2.438       .  S
O375        H404   0.990       .  S
Zr376       O379   2.437       .  S
Zr376       O380   2.436       .  S
Zr376       O381   2.389       .  S
O377        C382   1.288       .  A
O378        H395   0.990       .  S
O378        H410   0.990       .  S
O379        H396   0.990       .  S
O380        H400   0.990       .  S
O380        H409   0.990       .  S
O381        C382   1.275       .  A
C382       C1474   1.472       .  S
O383        H402   0.990       .  S
O383        H406   0.991       .  S
O384        H398   0.990       .  S
O384        H405   0.990       .  S
O385        C389   1.280       .  A
O386        C389   1.294       .  A
O387        H397   0.990       .  S
O388        H401   0.990       .  S
C389       C1981   1.483       .  S
C412       C1418   1.584       .  S
C412       C1435   1.581       .  S
C412       C1449   1.597   1_655  S
C412       C2275   1.559       .  S
C413       C1376   1.584       .  S
C413       C1390   1.582   1_655  S
C413       C1407   1.568       .  S
C413       C1589   1.570       .  S
Zr414       O415   2.445       .  S
Zr414       O416   2.433       .  S
Zr414       O417   2.450       .  S
Zr414       O420   2.405       .  S
Zr414       O422   2.382   1_545  S
Zr414       O423   2.391   1_554  S
Zr414       O424   2.408       .  S
Zr414       O425   2.400   1_455  S
O415        H471   0.990       .  S
O415        H479   0.991       .  S
O416        C436   1.281   1_554  A
O417        C438   1.285   1_545  A
O418       Zr428   2.481       .  S
O418        C437   1.293   1_556  A
O419       Zr427   2.468       .  S
O419        C438   1.290       .  A
O420        C437   1.278   1_455  A
O421       Zr429   2.401   1_545  S
O421        C436   1.276       .  A
O422       Zr427   2.415       .  S
O422       Zr429   2.391   1_554  S
O423       Zr428   2.397   1_455  S
O423       Zr429   2.388   1_545  S
O423        H458   0.965       .  S
O424       Zr427   2.410   1_545  S
O424       Zr444   2.385   1_455  S
O424        H461   0.964       .  S
O425       Zr428   2.393   1_554  S
O425       Zr444   2.375       .  S
Zr426       O451   2.441       .  S
Zr426       O445   2.406       .  S
Zr426       O453   2.381       .  S
Zr426       O441   2.381       .  S
Zr426       O432   2.384   1_665  S
Zr426       O433   2.387   1_655  S
Zr426       O434   2.378   1_556  S
Zr426       O435   2.378   1_565  S
Zr427       O446   2.436       .  S
Zr427       O439   2.434       .  S
Zr427       O440   2.487       .  S
Zr427       O433   2.401   1_554  S
Zr427       O434   2.393   1_455  S
Zr428       O430   2.435       .  S
Zr428       O452   2.434   1_655  S
Zr428       O454   2.491       .  S
Zr428       O432   2.393   1_655  S
Zr428       O435   2.377       .  S
Zr429       O455   2.436   1_565  S
Zr429       O456   2.436       .  S
Zr429       O431   2.437       .  S
Zr429       O432   2.392   1_565  S
Zr429       O433   2.385       .  S
O430        H467   0.990       .  S
O431        H462   0.990       .  S
O431        H476   0.990       .  S
O433        H459   0.966       .  S
O434       Zr444   2.376   1_565  S
O435       Zr444   2.377   1_556  S
O435        H460   0.966       .  S
C436       C1351   1.459       .  S
C437       C1404   1.475       .  S
C438       C1365   1.488       .  S
O439        H475   0.990       .  S
O440        C442   1.294   1_554  A
O441        C442   1.275   1_655  A
C442       C1337   1.496   1_455  S
O443       Zr444   2.435       .  S
O443        H472   0.990       .  S
Zr444       O447   2.436   1_545  S
Zr444       O448   2.438       .  S
Zr444       O449   2.397   1_545  S
O445        C450   1.277       .  A
O446        H463   0.990       .  S
O446        H478   0.990   1_455  S
O447        H464   0.990       .  S
O448        H468   0.990       .  S
O448        H477   0.990       .  S
O449        C450   1.278   1_554  A
C450       C2079   1.450       .  S
O451        H470   0.990   1_655  S
O451        H474   0.990       .  S
O452        H466   0.990       .  S
O452        H473   0.990   1_455  S
O453        C457   1.274   1_565  A
O454        C457   1.298       .  A
O455        H465   0.990       .  S
O456        H469   0.990       .  S
C457       C2314   1.489       .  S
Zr480       O481   2.444       .  S
Zr480       O482   2.426       .  S
Zr480       O483   2.403       .  S
Zr480       O486   2.377       .  S
Zr480       O488   2.378       .  S
Zr480       O489   2.380       .  S
Zr480       O490   2.392       .  S
Zr480       O491   2.397       .  S
O481        H537   0.990       .  S
O481        H545   0.990       .  S
O482        C502   1.282       .  A
O483        C504   1.279       .  A
O484       Zr494   2.484       .  S
O484        C503   1.296       .  A
O485       Zr493   2.519       .  S
O485        C504   1.301       .  A
O486        C503   1.276       .  A
O487       Zr495   2.442       .  S
O487        C502   1.285       .  A
O488       Zr493   2.410       .  S
O488       Zr495   2.380       .  S
O489       Zr494   2.386       .  S
O489       Zr495   2.369       .  S
O489        H524   1.008       .  S
O490       Zr493   2.409       .  S
O490       Zr510   2.386       .  S
O490        H527   0.966       .  S
O491       Zr494   2.405       .  S
O491       Zr510   2.376       .  S
Zr492       O517   2.439       .  S
Zr492       O511   2.429       .  S
Zr492       O519   2.380       .  S
Zr492       O507   2.378       .  S
Zr492       O498   2.389       .  S
Zr492       O499   2.404       .  S
Zr492       O500   2.373       .  S
Zr492       O501   2.372       .  S
Zr493       O512   2.436       .  S
Zr493       O505   2.434       .  S
Zr493       O506   2.536       .  S
Zr493       O499   2.408       .  S
Zr493       O500   2.388       .  S
Zr494       O496   2.433       .  S
Zr494       O518   2.437       .  S
Zr494       O520   2.522       .  S
Zr494       O498   2.389       .  S
Zr494       O501   2.379       .  S
Zr495       O521   2.435       .  S
Zr495       O522   2.440       .  S
Zr495       O497   2.439       .  S
Zr495       O498   2.409       .  S
Zr495       O499   2.404       .  S
O496        H533   0.990       .  S
O497        H528   0.990       .  S
O497        H542   0.990       .  S
O499        H525   0.965       .  S
O500       Zr510   2.375       .  S
O501       Zr510   2.379       .  S
O501        H526   0.966       .  S
C502       C1393   1.471       .  S
C503       C1320   1.485       .  S
C504       C1309   1.498       .  S
O505        H541   0.990       .  S
O506        C508   1.302       .  A
O507        C508   1.270       .  A
C508       C1278   1.506       .  S
O509       Zr510   2.436       .  S
O509        H538   0.990       .  S
Zr510       O513   2.435       .  S
Zr510       O514   2.438       .  S
Zr510       O515   2.396       .  S
O511        C516   1.283       .  A
O512        H529   0.990       .  S
O512        H544   0.990       .  S
O513        H530   0.990       .  S
O514        H534   0.990       .  S
O514        H543   0.990       .  S
O515        C516   1.277       .  A
C516       C1292   1.456       .  S
O517        H536   0.990       .  S
O517        H540   0.990       .  S
O518        H532   0.990       .  S
O518        H539   0.990       .  S
O519        C523   1.274       .  A
O520        C523   1.302       .  A
O521        H531   0.990       .  S
O522        H535   0.989       .  S
C523       C1264   1.489       .  S
C546       C1250   1.601       .  S
C546       C1306   1.598       .  S
C546       C1362   1.595       .  S
C546       C1712   1.604   1_545  S
Zr547       O548   2.443       .  S
Zr547       O549   2.476       .  S
Zr547       O550   2.443       .  S
Zr547       O553   2.409       .  S
Zr547       O555   2.375   1_655  S
Zr547       O556   2.385       .  S
Zr547       O557   2.422   1_545  S
Zr547       O558   2.414       .  S
O548        H604   0.990       .  S
O548        H612   0.989       .  S
O549        C569   1.291       .  A
O550        C571   1.284       .  A
O551       Zr561   2.474       .  S
O551        C570   1.291       .  A
O552       Zr560   2.516   1_655  S
O552        C571   1.300   1_565  A
O553        C570   1.278       .  A
O554       Zr562   2.415       .  S
O554        C569   1.277   1_455  A
O555       Zr560   2.417   1_545  S
O555       Zr562   2.395       .  S
O556       Zr561   2.416       .  S
O556       Zr562   2.376   1_655  S
O556        H591   0.965       .  S
O557       Zr560   2.408   1_655  S
O557       Zr577   2.396       .  S
O557        H594   0.963       .  S
O558       Zr561   2.398       .  S
O558       Zr577   2.395   1_545  S
Zr559       O584   2.448       .  S
Zr559       O578   2.456       .  S
Zr559       O586   2.416       .  S
Zr559       O574   2.401       .  S
Zr559       O565   2.401   1_565  S
Zr559       O566   2.417   1_565  S
Zr559       O567   2.380       .  S
Zr559       O568   2.374   1_455  S
Zr560       O579   2.435       .  S
Zr560       O572   2.435   1_565  S
Zr560       O573   2.514       .  S
Zr560       O566   2.411   1_565  S
Zr560       O567   2.413       .  S
Zr561       O563   2.436   1_545  S
Zr561       O585   2.437       .  S
Zr561       O587   2.485       .  S
Zr561       O565   2.394   1_655  S
Zr561       O568   2.405   1_545  S
Zr562       O588   2.434       .  S
Zr562       O589   2.435       .  S
Zr562       O564   2.441       .  S
Zr562       O565   2.398       .  S
Zr562       O566   2.379       .  S
O563        H600   0.990   1_565  S
O564        H595   0.990       .  S
O564        H609   0.990       .  S
O566        H592   0.962       .  S
O567       Zr577   2.392   1_455  S
O568       Zr577   2.377       .  S
O568        H593   0.966       .  S
C569       C1432   1.508       .  S
C570       C1782   1.476       .  S
C571       C2303   1.512       .  S
O572        H608   0.990   1_545  S
O573        C575   1.300       .  A
O574        C575   1.275       .  A
C575       C1659   1.482       .  S
O576       Zr577   2.436       .  S
O576        H605   0.990       .  S
Zr577       O580   2.434       .  S
Zr577       O581   2.437       .  S
Zr577       O582   2.428       .  S
O578        C583   1.288   1_455  A
O579        H596   0.990       .  S
O579        H611   0.990   1_455  S
O580        H597   0.990       .  S
O581        H601   0.990       .  S
O581        H610   0.990       .  S
O582        C583   1.280       .  A
C583       C1757   1.507       .  S
O584        H603   0.991       .  S
O584        H607   0.991       .  S
O585        H599   0.990       .  S
O585        H606   0.990       .  S
O586        C590   1.281   1_565  A
O587        C590   1.293   1_655  A
O588        H598   0.990       .  S
O589        H602   0.990       .  S
C590       C1253   1.495       .  S
C613       C1239   1.529       .  S
C613       C1323   1.579       .  S
C613       C1348   1.569   1_554  S
C613       C1477   1.571   1_554  S
Zr614       O615   2.444       .  S
Zr614       O616   2.419       .  S
Zr614       O617   2.443       .  S
Zr614       O620   2.397       .  S
Zr614       O622   2.370   1_545  S
Zr614       O623   2.387   1_556  S
Zr614       O624   2.403       .  S
Zr614       O625   2.406       .  S
O615        H671   0.991       .  S
O615        H679   0.989       .  S
O616        C636   1.281   1_556  A
O617        C638   1.282   1_545  A
O618       Zr628   2.476       .  S
O618        C637   1.295   1_554  A
O619       Zr627   2.477       .  S
O619        C638   1.290       .  A
O620        C637   1.278       .  A
O621       Zr629   2.397   1_545  S
O621        C636   1.275       .  A
O622       Zr627   2.409       .  S
O622       Zr629   2.398   1_556  S
O623       Zr628   2.368       .  S
O623       Zr629   2.378   1_545  S
O623        H658   0.952       .  S
O624       Zr627   2.400   1_545  S
O624       Zr644   2.395       .  S
O624        H661   0.964       .  S
O625       Zr628   2.395   1_556  S
O625       Zr644   2.381       .  S
Zr626       O651   2.445       .  S
Zr626       O645   2.386       .  S
Zr626       O653   2.420       .  S
Zr626       O641   2.390       .  S
Zr626       O632   2.377   1_565  S
Zr626       O633   2.404       .  S
Zr626       O634   2.379   1_554  S
Zr626       O635   2.376   1_565  S
Zr627       O646   2.434       .  S
Zr627       O639   2.436       .  S
Zr627       O640   2.447       .  S
Zr627       O633   2.421   1_556  S
Zr627       O634   2.404       .  S
Zr628       O630   2.435       .  S
Zr628       O652   2.437       .  S
Zr628       O654   2.466       .  S
Zr628       O632   2.395       .  S
Zr628       O635   2.390       .  S
Zr629       O655   2.435   1_565  S
Zr629       O656   2.438       .  S
Zr629       O631   2.436       .  S
Zr629       O632   2.384   1_565  S
Zr629       O633   2.371       .  S
O630        H667   0.990       .  S
O631        H662   0.990       .  S
O631        H676   0.990       .  S
O633        H659   0.964       .  S
O634       Zr644   2.379   1_565  S
O635       Zr644   2.374   1_554  S
O635        H660   0.966       .  S
C636       C1236   1.456       .  S
C637       C1505   1.486       .  S
C638       C1995   1.503       .  S
O639        H675   0.990       .  S
O640        C642   1.286   1_556  A
O641        C642   1.277       .  A
C642       C2051   1.466       .  S
O643       Zr644   2.436       .  S
O643        H672   0.990       .  S
Zr644       O647   2.433   1_545  S
Zr644       O648   2.437       .  S
Zr644       O649   2.407   1_545  S
O645        C650   1.273   1_554  A
O646        H663   0.990       .  S
O646        H678   0.990       .  S
O647        H664   0.990       .  S
O648        H668   0.990       .  S
O648        H677   0.990       .  S
O649        C650   1.278       .  A
C650       C2065   1.447       .  S
O651        H670   0.990       .  S
O651        H674   0.989       .  S
O652        H666   0.990       .  S
O652        H673   0.990       .  S
O653        C657   1.282   1_565  A
O654        C657   1.291       .  A
O655        H665   0.990       .  S
O656        H669   0.991       .  S
C657       C1547   1.490       .  S
Zr680       O681   2.446       .  S
Zr680       O682   2.439       .  S
Zr680       O683   2.444       .  S
Zr680       O686   2.378       .  S
Zr680       O688   2.371       .  S
Zr680       O689   2.391       .  S
Zr680       O690   2.395   1_545  S
Zr680       O691   2.411       .  S
O681        H737   0.991       .  S
O681        H745   0.990       .  S
O682        C702   1.284       .  A
O683        C704   1.283       .  A
O684       Zr694   2.525       .  S
O684        C703   1.302       .  A
O685       Zr693   2.523       .  S
O685        C704   1.302   1_565  A
O686        C703   1.274       .  A
O687       Zr695   2.395       .  S
O687        C702   1.274       .  A
O688       Zr693   2.406   1_545  S
O688       Zr695   2.393       .  S
O689       Zr694   2.409       .  S
O689       Zr695   2.376       .  S
O689        H724   0.966       .  S
O690       Zr693   2.408       .  S
O690       Zr710   2.392       .  S
O690        H727   0.965       .  S
O691       Zr694   2.410       .  S
O691       Zr710   2.394   1_545  S
Zr692       O717   2.446       .  S
Zr692       O711   2.435       .  S
Zr692       O719   2.417       .  S
Zr692       O707   2.392       .  S
Zr692       O698   2.391   1_565  S
Zr692       O699   2.412   1_565  S
Zr692       O700   2.381       .  S
Zr692       O701   2.380       .  S
Zr693       O712   2.435       .  S
Zr693       O705   2.435   1_565  S
Zr693       O706   2.504       .  S
Zr693       O699   2.423   1_565  S
Zr693       O700   2.419       .  S
Zr694       O696   2.436       .  S
Zr694       O718   2.436       .  S
Zr694       O720   2.550       .  S
Zr694       O698   2.391       .  S
Zr694       O701   2.408   1_545  S
Zr695       O721   2.436       .  S
Zr695       O722   2.433       .  S
Zr695       O697   2.437       .  S
Zr695       O698   2.382       .  S
Zr695       O699   2.386       .  S
O696        H733   0.990       .  S
O697        H728   0.990       .  S
O697        H742   0.990       .  S
O699        H725   0.965       .  S
O700       Zr710   2.382       .  S
O701       Zr710   2.386       .  S
O701        H726   0.966       .  S
C702       C1225   1.459       .  S
C703       C1799   1.499       .  S
C704       C1530   1.515       .  S
O705        H741   0.990       .  S
O706        C708   1.296       .  A
O707        C708   1.274       .  A
C708       C1673   1.493       .  S
O709       Zr710   2.436       .  S
O709        H738   0.990       .  S
Zr710       O713   2.436       .  S
Zr710       O714   2.436       .  S
Zr710       O715   2.417       .  S
O711        C716   1.280       .  A
O712        H729   0.990       .  S
O712        H744   0.990       .  S
O713        H730   0.990       .  S
O714        H734   0.990       .  S
O714        H743   0.990       .  S
O715        C716   1.280       .  A
C716       C1208   1.474       .  S
O717        H736   0.989       .  S
O717        H740   0.990       .  S
O718        H732   0.990       .  S
O718        H739   0.990       .  S
O719        C723   1.280   1_565  A
O720        C723   1.307       .  A
O721        H731   0.990       .  S
O722        H735   0.990       .  S
C723       C2009   1.527       .  S
C746       C1194   1.565       .  S
C746       C1222   1.563       .  S
C746       C1295   1.560       .  S
C746       C1575   1.572       .  S
Zr747       O748   2.444       .  S
Zr747       O749   2.429       .  S
Zr747       O750   2.436       .  S
Zr747       O753   2.391       .  S
Zr747       O755   2.371       .  S
Zr747       O756   2.391   1_554  S
Zr747       O757   2.399       .  S
Zr747       O758   2.403   1_655  S
O748        H804   0.991       .  S
O748        H812   0.991       .  S
O749        C769   1.282       .  A
O750        C771   1.281       .  A
O751       Zr761   2.492       .  S
O751        C770   1.296   1_456  A
O752       Zr760   2.474       .  S
O752        C771   1.291       .  A
O753        C770   1.277       .  A
O754       Zr762   2.411       .  S
O754        C769   1.277   1_556  A
O755       Zr760   2.411       .  S
O755       Zr762   2.388   1_554  S
O756       Zr761   2.411   1_655  S
O756       Zr762   2.385       .  S
O756        H791   0.966       .  S
O757       Zr760   2.410       .  S
O757       Zr777   2.397   1_655  S
O757        H794   0.965       .  S
O758       Zr761   2.407   1_554  S
O758       Zr777   2.380       .  S
Zr759       O784   2.439       .  S
Zr759       O778   2.399       .  S
Zr759       O786   2.384       .  S
Zr759       O774   2.371       .  S
Zr759       O765   2.381   1_455  S
Zr759       O766   2.391   1_455  S
Zr759       O767   2.374   1_556  S
Zr759       O768   2.369       .  S
Zr760       O779   2.435       .  S
Zr760       O772   2.434       .  S
Zr760       O773   2.495       .  S
Zr760       O766   2.403   1_554  S
Zr760       O767   2.389   1_655  S
Zr761       O763   2.435       .  S
Zr761       O785   2.435   1_455  S
Zr761       O787   2.536       .  S
Zr761       O765   2.392   1_455  S
Zr761       O768   2.383       .  S
Zr762       O788   2.436       .  S
Zr762       O789   2.436       .  S
Zr762       O764   2.438       .  S
Zr762       O765   2.402       .  S
Zr762       O766   2.397       .  S
O763        H800   0.990       .  S
O764        H795   0.990       .  S
O764        H809   0.990       .  S
O766        H792   0.966       .  S
O767       Zr777   2.373       .  S
O768       Zr777   2.380   1_556  S
O768        H793   0.965       .  S
C769       C1939   1.464       .  S
C770       C1379   1.484       .  S
C771       C1617   1.491       .  S
O772        H808   0.990       .  S
O773        C775   1.296   1_654  A
O774        C775   1.273       .  A
C775       C1183   1.491       .  S
O776       Zr777   2.436       .  S
O776        H805   0.990       .  S
Zr777       O780   2.436       .  S
Zr777       O781   2.441       .  S
Zr777       O782   2.417       .  S
O778        C783   1.278       .  A
O779        H796   0.990   1_655  S
O779        H811   0.990       .  S
O780        H797   0.990       .  S
O781        H801   0.990       .  S
O781        H810   0.990       .  S
O782        C783   1.282   1_554  A
C783       C1883   1.472       .  S
O784        H803   0.990   1_455  S
O784        H807   0.989   1_455  S
O785        H799   0.990       .  S
O785        H806   0.990       .  S
O786        C790   1.274       .  A
O787        C790   1.304       .  A
O788        H798   0.990       .  S
O789        H802   0.988       .  S
C790       C1855   1.500       .  S
Zr813       O814   2.446       .  S
Zr813       O815   2.422       .  S
Zr813       O816   2.456       .  S
Zr813       O819   2.418       .  S
Zr813       O821   2.373       .  S
Zr813       O822   2.392   1_556  S
Zr813       O823   2.402       .  S
Zr813       O824   2.395       .  S
O814        H870   0.990       .  S
O814        H878   0.989       .  S
O815        C835   1.282   1_556  A
O816        C837   1.288       .  A
O817       Zr827   2.477       .  S
O817        C836   1.294   1_554  A
O818       Zr826   2.474       .  S
O818        C837   1.290       .  A
O819        C836   1.283       .  A
O820       Zr828   2.405       .  S
O820        C835   1.276       .  A
O821       Zr826   2.411       .  S
O821       Zr828   2.390   1_556  S
O822       Zr827   2.380       .  S
O822       Zr828   2.385       .  S
O822        H857   0.964       .  S
O823       Zr826   2.404       .  S
O823       Zr843   2.382       .  S
O823        H860   0.964       .  S
O824       Zr827   2.389   1_556  S
O824       Zr843   2.365       .  S
Zr825       O850   2.442       .  S
Zr825       O844   2.429       .  S
Zr825       O852   2.447       .  S
Zr825       O840   2.413       .  S
Zr825       O831   2.395       .  S
Zr825       O832   2.412       .  S
Zr825       O833   2.384   1_554  S
Zr825       O834   2.386       .  S
Zr826       O845   2.436       .  S
Zr826       O838   2.434       .  S
Zr826       O839   2.460       .  S
Zr826       O832   2.416   1_556  S
Zr826       O833   2.405       .  S
Zr827       O829   2.436       .  S
Zr827       O851   2.436       .  S
Zr827       O853   2.473       .  S
Zr827       O831   2.390       .  S
Zr827       O834   2.391       .  S
Zr828       O854   2.434       .  S
Zr828       O855   2.435       .  S
Zr828       O830   2.437       .  S
Zr828       O831   2.394       .  S
Zr828       O832   2.385       .  S
O829        H866   0.990       .  S
O830        H861   0.990       .  S
O830        H875   0.990       .  S
O832        H858   0.963       .  S
O833       Zr843   2.388       .  S
O834       Zr843   2.387   1_554  S
O834        H859   0.966       .  S
C835       C1953   1.467       .  S
C836       C1491   1.490       .  S
C837       C2205   1.503       .  S
O838        H874   0.990       .  S
O839        C841   1.289   1_556  A
O840        C841   1.278       .  A
C841       C2037   1.468       .  S
O842       Zr843   2.435       .  S
O842        H871   0.990       .  S
Zr843       O846   2.435       .  S
Zr843       O847   2.439       .  S
Zr843       O848   2.376       .  S
O844        C849   1.281   1_554  A
O845        H862   0.990       .  S
O845        H877   0.990       .  S
O846        H863   0.990       .  S
O847        H867   0.990       .  S
O847        H876   0.990       .  S
O848        C849   1.272       .  A
C849       C1897   1.455       .  S
O850        H869   0.991       .  S
O850        H873   0.989       .  S
O851        H865   0.990       .  S
O851        H872   0.990       .  S
O852        C856   1.284       .  A
O853        C856   1.295       .  A
O854        H864   0.990       .  S
O855        H868   0.991       .  S
C856       C1166   1.505       .  S
Zr879       O880   2.446       .  S
Zr879       O881   2.470       .  S
Zr879       O882   2.409       .  S
Zr879       O885   2.412       .  S
Zr879       O887   2.374   1_655  S
Zr879       O888   2.388       .  S
Zr879       O889   2.414   1_655  S
Zr879       O890   2.405       .  S
O880        H936   0.991       .  S
O880        H944   0.991       .  S
O881        C901   1.291       .  A
O882        C903   1.274   1_655  A
O883       Zr893   2.501       .  S
O883        C902   1.292       .  A
O884       Zr892   2.498       .  S
O884        C903   1.296       .  A
O885        C902   1.276       .  A
O886       Zr894   2.458       .  S
O886        C901   1.286       .  A
O887       Zr892   2.412       .  S
O887       Zr894   2.378   1_455  S
O888       Zr893   2.421       .  S
O888       Zr894   2.366       .  S
O888        H923   0.966       .  S
O889       Zr892   2.413       .  S
O889       Zr909   2.399       .  S
O889        H926   0.964       .  S
O890       Zr893   2.404       .  S
O890       Zr909   2.393   1_655  S
Zr891       O916   2.447       .  S
Zr891       O910   2.494       .  S
Zr891       O918   2.405       .  S
Zr891       O906   2.404       .  S
Zr891       O897   2.431   1_455  S
Zr891       O898   2.429       .  S
Zr891       O899   2.369       .  S
Zr891       O900   2.377   1_455  S
Zr892       O911   2.437       .  S
Zr892       O904   2.434       .  S
Zr892       O905   2.515       .  S
Zr892       O898   2.399       .  S
Zr892       O899   2.417       .  S
Zr893       O895   2.435       .  S
Zr893       O917   2.438       .  S
Zr893       O919   2.516       .  S
Zr893       O897   2.388       .  S
Zr893       O900   2.419       .  S
Zr894       O920   2.434       .  S
Zr894       O921   2.435   1_655  S
Zr894       O896   2.442   1_655  S
Zr894       O897   2.424       .  S
Zr894       O898   2.387   1_655  S
O895        H932   0.990       .  S
O896        H927   0.990       .  S
O896        H941   0.990       .  S
O898        H924   0.961       .  S
O899       Zr909   2.397       .  S
O900       Zr909   2.392   1_655  S
O900        H925   0.967       .  S
C901       C1603   1.522       .  S
C902       C2177   1.491       .  S
C903       C1743   1.482       .  S
O904        H940   0.990       .  S
O905        C907   1.299       .  A
O906        C907   1.276       .  A
C907       C1155   1.491       .  S
O908       Zr909   2.435   1_655  S
O908        H937   0.990       .  S
Zr909       O912   2.435       .  S
Zr909       O913   2.439   1_455  S
Zr909       O914   2.429       .  S
O910        C915   1.292       .  A
O911        H928   0.990       .  S
O911        H943   0.990       .  S
O912        H929   0.990       .  S
O913        H933   0.990       .  S
O913        H942   0.990       .  S
O914        C915   1.278       .  A
C915       C1838   1.519       .  S
O916        H935   0.991       .  S
O916        H939   0.988       .  S
O917        H931   0.990       .  S
O917        H938   0.990       .  S
O918        C922   1.276   1_455  A
O919        C922   1.301       .  A
O920        H930   0.990       .  S
O921        H934   0.990       .  S
C922       C1421   1.511       .  S
C945       C1138   1.568       .  S
C945       C1152   1.582       .  S
C945       C1281   1.579       .  S
C945       C1463   1.580       .  S
Zr946       O947   2.443       .  S
Zr946       O948   2.446       .  S
Zr946       O949   2.464       .  S
Zr946       O952   2.410       .  S
Zr946       O954   2.372       .  S
Zr946       O955   2.400       .  S
Zr946       O956   2.402       .  S
Zr946       O957   2.411       .  S
O947       H1003   0.990       .  S
O947       H1011   0.990       .  S
O948        C968   1.286       .  A
O949        C970   1.289       .  A
O950       Zr960   2.480       .  S
O950        C969   1.290       .  A
O951       Zr959   2.519       .  S
O951        C970   1.299       .  A
O952        C969   1.276       .  A
O953       Zr961   2.391       .  S
O953        C968   1.275       .  A
O954       Zr959   2.397       .  S
O954       Zr961   2.395       .  S
O955       Zr960   2.411       .  S
O955       Zr961   2.377       .  S
O955        H990   0.966       .  S
O956       Zr959   2.392       .  S
O956       Zr976   2.401       .  S
O956        H993   0.964       .  S
O957       Zr960   2.405       .  S
O957       Zr976   2.393       .  S
Zr958       O983   2.446       .  S
Zr958       O977   2.434       .  S
Zr958       O985   2.450       .  S
Zr958       O973   2.404       .  S
Zr958       O964   2.397       .  S
Zr958       O965   2.423       .  S
Zr958       O966   2.395       .  S
Zr958       O967   2.376       .  S
Zr959       O978   2.435       .  S
Zr959       O971   2.437       .  S
Zr959       O972   2.461       .  S
Zr959       O965   2.426       .  S
Zr959       O966   2.423       .  S
Zr960       O962   2.435       .  S
Zr960       O984   2.437       .  S
Zr960       O986   2.504       .  S
Zr960       O964   2.388       .  S
Zr960       O967   2.403       .  S
Zr961       O987   2.435       .  S
Zr961       O988   2.435       .  S
Zr961       O963   2.437       .  S
Zr961       O964   2.390       .  S
Zr961       O965   2.365       .  S
O962        H999   0.990       .  S
O963        H994   0.989       .  S
O963       H1008   0.989       .  S
O965        H991   0.963       .  S
O966       Zr976   2.379       .  S
O967       Zr976   2.390       .  S
O967        H992   0.966       .  S
C968       C1197   1.472       .  S
C969       C1141   1.476       .  S
C970       C1127   1.536       .  S
O971       H1007   0.990       .  S
O972        C974   1.289       .  A
O973        C974   1.277       .  A
C974       C2163   1.458       .  S
O975       Zr976   2.438       .  S
O975       H1004   0.990       .  S
Zr976       O979   2.437       .  S
Zr976       O980   2.440       .  S
Zr976       O981   2.418       .  S
O977        C982   1.283       .  A
O978        H995   0.990       .  S
O978       H1010   0.990       .  S
O979        H996   0.990       .  S
O980       H1000   0.990       .  S
O980       H1009   0.990       .  S
O981        C982   1.278       .  A
C982       C1110   1.474       .  S
O983       H1002   0.991       .  S
O983       H1006   0.991       .  S
O984        H998   0.990       .  S
O984       H1005   0.990       .  S
O985        C989   1.286       .  A
O986        C989   1.298       .  A
O987        H997   0.990       .  S
O988       H1001   0.990       .  S
C989       C2219   1.515       .  S
C1012      C1124   1.612       .  S
C1012      C1169   1.596       .  S
C1012      C1267   1.565       .  S
C1012      C1701   1.605       .  S
C1013      C1099   1.591       .  S
C1013      C1180   1.575       .  S
C1013      C1334   1.572   1_455  S
C1013      C2412   1.588   1_455  S
Zr1014     O1015   2.442       .  S
Zr1014     O1016   2.422       .  S
Zr1014     O1017   2.391       .  S
Zr1014     O1020   2.375       .  S
Zr1014     O1022   2.373       .  S
Zr1014     O1023   2.381       .  S
Zr1014     O1024   2.390       .  S
Zr1014     O1025   2.393       .  S
O1015      H1071   0.991       .  S
O1015      H1079   0.990       .  S
O1016      C1036   1.282       .  A
O1017      C1038   1.277       .  A
O1018     Zr1028   2.544       .  S
O1018      C1037   1.306       .  A
O1019     Zr1027   2.516       .  S
O1019      C1038   1.299       .  A
O1020      C1037   1.275       .  A
O1021     Zr1029   2.402       .  S
O1021      C1036   1.277       .  A
O1022     Zr1027   2.409       .  S
O1022     Zr1029   2.388       .  S
O1023     Zr1028   2.401       .  S
O1023     Zr1029   2.368       .  S
O1023      H1058   0.966       .  S
O1024     Zr1027   2.411       .  S
O1024     Zr1044   2.378       .  S
O1024      H1061   0.965       .  S
O1025     Zr1028   2.406       .  S
O1025     Zr1044   2.397       .  S
Zr1026     O1051   2.439       .  S
Zr1026     O1045   2.423       .  S
Zr1026     O1053   2.394       .  S
Zr1026     O1041   2.407       .  S
Zr1026     O1032   2.396       .  S
Zr1026     O1033   2.390       .  S
Zr1026     O1034   2.372       .  S
Zr1026     O1035   2.387       .  S
Zr1027     O1046   2.436       .  S
Zr1027     O1039   2.433       .  S
Zr1027     O1040   2.529       .  S
Zr1027     O1033   2.398       .  S
Zr1027     O1034   2.396       .  S
Zr1028     O1030   2.435       .  S
Zr1028     O1052   2.436       .  S
Zr1028     O1054   2.543       .  S
Zr1028     O1032   2.396       .  S
Zr1028     O1035   2.406       .  S
Zr1029     O1055   2.437       .  S
Zr1029     O1056   2.436       .  S
Zr1029     O1031   2.435       .  S
Zr1029     O1032   2.386       .  S
Zr1029     O1033   2.387       .  S
O1030      H1067   0.990       .  S
O1031      H1062   0.990       .  S
O1031      H1076   0.990       .  S
O1033      H1059   0.965       .  S
O1034     Zr1044   2.382       .  S
O1035     Zr1044   2.380       .  S
O1035      H1060   0.965       .  S
C1036      C1869   1.463       .  S
C1037      C1096   1.504       .  S
C1038      C1813   1.511       .  S
O1039      H1075   0.990       .  S
O1040      C1042   1.305       .  A
O1041      C1042   1.281       .  A
C1042      C1082   1.509       .  S
O1043     Zr1044   2.437       .  S
O1043      H1072   0.990       .  S
Zr1044     O1047   2.435       .  S
Zr1044     O1048   2.440       .  S
Zr1044     O1049   2.413       .  S
O1045      C1050   1.284       .  A
O1046      H1063   0.990       .  S
O1046      H1078   0.990       .  S
O1047      H1064   0.990       .  S
O1048      H1068   0.990       .  S
O1048      H1077   0.990       .  S
O1049      C1050   1.279       .  A
C1050      C1642   1.468       .  S
O1051      H1070   0.990       .  S
O1051      H1074   0.990       .  S
O1052      H1066   0.990       .  S
O1052      H1073   0.990       .  S
O1053      C1057   1.278       .  A
O1054      C1057   1.305       .  A
O1055      H1065   0.990       .  S
O1056      H1069   0.990       .  S
C1057      C1967   1.514       .  S
C1080      C1085   1.599       .  S
C1080      C1113   1.565       .  S
C1080      C1211   1.577       .  S
C1080      C2373   1.593       .  S
C1081      C1082   1.417       .  A
C1081      C1086   1.420       .  A
C1081      H1088   1.083       .  S
C1082      C1083   1.398       .  A
C1083      C1084   1.403       .  A
C1083      N1090   1.429       .  S
C1084      C1085   1.435       .  A
C1084      H1089   1.077       .  S
C1085      C1086   1.427       .  A
C1086      N1087   1.434       .  S
N1087      O1091   1.262       .  A
N1087      O1092   1.260       .  A
N1090      O1094   1.262       .  A
N1090      O1093   1.262       .  A
C1095      C1096   1.407       .  A
C1095      C1100   1.408       .  A
C1095      H1102   1.085       .  S
C1096      C1097   1.406       .  A
C1097      C1098   1.413       .  A
C1097      N1104   1.427       .  S
C1098      C1099   1.425       .  A
C1098      H1103   1.077       .  S
C1099      C1100   1.437       .  A
C1100      N1101   1.434       .  S
N1101      O1105   1.261       .  A
N1101      O1106   1.262       .  A
N1104      O1108   1.261       .  A
N1104      O1107   1.262       .  A
C1109      C1110   1.405       .  A
C1109      C1114   1.418       .  A
C1109      H1116   1.083       .  S
C1110      C1111   1.394       .  A
C1111      C1112   1.375       .  A
C1111      N1118   1.419       .  S
C1112      C1113   1.405       .  A
C1112      H1117   1.076       .  S
C1113      C1114   1.431       .  A
C1114      N1115   1.431       .  S
N1115      O1119   1.261       .  A
N1115      O1120   1.261       .  A
N1118      O1122   1.262       .  A
N1118      O1121   1.256       .  A
C1123      C1124   1.424       .  A
C1123      C1128   1.428       .  A
C1123      H1130   1.077       .  S
C1124      C1125   1.438       .  A
C1125      C1126   1.412       .  A
C1125      N1132   1.432       .  S
C1126      C1127   1.408       .  A
C1126      H1131   1.083       .  S
C1127      C1128   1.419       .  A
C1128      N1129   1.427       .  S
N1129      O1133   1.262       .  A
N1129      O1134   1.262       .  A
N1132      O1136   1.262       .  A
N1132      O1135   1.262       .  A
C1137      C1138   1.425       .  A
C1137      C1142   1.401       .  A
C1137      H1144   1.083       .  S
C1138      C1139   1.437       .  A
C1139      C1140   1.404       .  A
C1139      N1146   1.435       .  S
C1140      C1141   1.399       .  A
C1140      H1145   1.084       .  S
C1141      C1142   1.399       .  A
C1142      N1143   1.429       .  S
N1143      O1147   1.262       .  A
N1143      O1148   1.262       .  A
N1146      O1150   1.260       .  A
N1146      O1149   1.261       .  A
C1151      C1152   1.410       .  A
C1151      C1156   1.392       .  A
C1151      H1158   1.083       .  S
C1152      C1153   1.446       .  A
C1153      C1154   1.416       .  A
C1153      N1160   1.431       .  S
C1154      C1155   1.395       .  A
C1154      H1159   1.084       .  S
C1155      C1156   1.414       .  A
C1156      N1157   1.430       .  S
N1157      O1161   1.262       .  A
N1157      O1162   1.261       .  A
N1160      O1164   1.262       .  A
N1160      O1163   1.261       .  A
C1165      C1166   1.388       .  A
C1165      C1170   1.399       .  A
C1165      H1172   1.085       .  S
C1166      C1167   1.417       .  A
C1167      C1168   1.416       .  A
C1167      N1174   1.427       .  S
C1168      C1169   1.417       .  A
C1168      H1173   1.084       .  S
C1169      C1170   1.456       .  A
C1170      N1171   1.433       .  S
N1171      O1175   1.263       .  A
N1171      O1176   1.261       .  A
N1174      O1178   1.262       .  A
N1174      O1177   1.261       .  A
C1179      C1180   1.434       .  A
C1179      C1184   1.416       .  A
C1179      H1186   1.078   1_455  S
C1180      C1181   1.425       .  A
C1181      C1182   1.389       .  A
C1181      N1188   1.432       .  S
C1182      C1183   1.401       .  A
C1182      H1187   1.080       .  S
C1183      C1184   1.400       .  A
C1184      N1185   1.429   1_456  S
N1185      O1189   1.262   1_655  A
N1185      O1190   1.262       .  A
N1188      O1192   1.262   1_455  A
N1188      O1191   1.261       .  A
C1193      C1194   1.417       .  A
C1193      C1198   1.389       .  A
C1193      H1200   1.075       .  S
C1194      C1195   1.438       .  A
C1195      C1196   1.401       .  A
C1195      N1202   1.432       .  S
C1196      C1197   1.395       .  A
C1196      H1201   1.085       .  S
C1197      C1198   1.403       .  A
C1198      N1199   1.429       .  S
N1199      O1203   1.262       .  A
N1199      O1204   1.262       .  A
N1202      O1206   1.262       .  A
N1202      O1205   1.261       .  A
C1207      C1208   1.404       .  A
C1207      C1212   1.415       .  A
C1207      H1214   1.081       .  S
C1208      C1209   1.394       .  A
C1209      C1210   1.382       .  A
C1209      N1216   1.430       .  S
C1210      C1211   1.422       .  A
C1210      H1215   1.077       .  S
C1211      C1212   1.431       .  A
C1212      N1213   1.432       .  S
N1213      O1217   1.262       .  A
N1213      O1218   1.261       .  A
N1216      O1220   1.262       .  A
N1216      O1219   1.262       .  A
C1221      C1222   1.414       .  A
C1221      C1226   1.379       .  A
C1221      H1228   1.074       .  S
C1222      C1223   1.433       .  A
C1223      C1224   1.408       .  A
C1223      N1230   1.432       .  S
C1224      C1225   1.400       .  A
C1224      H1229   1.084       .  S
C1225      C1226   1.392       .  A
C1226      N1227   1.427       .  S
N1227      O1231   1.262       .  A
N1227      O1232   1.259       .  A
N1230      O1234   1.261       .  A
N1230      O1233   1.261       .  A
C1235      C1236   1.396       .  A
C1235      C1240   1.401       .  A
C1235      H1242   1.083       .  S
C1236      C1237   1.406       .  A
C1237      C1238   1.381       .  A
C1237      N1244   1.443       .  S
C1238      C1239   1.405       .  A
C1238      H1243   1.080   1_554  S
C1239      C1240   1.427       .  A
C1240      N1241   1.432       .  S
N1241      O1245   1.261       .  A
N1241      O1246   1.262       .  A
N1244      O1248   1.260       .  A
N1244      O1247   1.262   1_554  A
C1249      C1250   1.423   1_565  A
C1249      C1254   1.412       .  A
C1249      H1256   1.070       .  S
C1250      C1251   1.436       .  A
C1251      C1252   1.404       .  A
C1251      N1258   1.430       .  S
C1252      C1253   1.398       .  A
C1252      H1257   1.085       .  S
C1253      C1254   1.404   1_545  A
C1254      N1255   1.427   1_455  S
N1255      O1259   1.262   1_565  A
N1255      O1260   1.262       .  A
N1258      O1262   1.262   1_545  A
N1258      O1261   1.263       .  A
C1263      C1264   1.403       .  A
C1263      C1268   1.406       .  A
C1263      H1270   1.084       .  S
C1264      C1265   1.412       .  A
C1265      C1266   1.409       .  A
C1265      N1272   1.427       .  S
C1266      C1267   1.413       .  A
C1266      H1271   1.078       .  S
C1267      C1268   1.432       .  A
C1268      N1269   1.433       .  S
N1269      O1273   1.262       .  A
N1269      O1274   1.262       .  A
N1272      O1276   1.262       .  A
N1272      O1275   1.262       .  A
C1277      C1278   1.412       .  A
C1277      C1282   1.399       .  A
C1277      H1284   1.078       .  S
C1278      C1279   1.403       .  A
C1279      C1280   1.411       .  A
C1279      N1286   1.427       .  S
C1280      C1281   1.429       .  A
C1280      H1285   1.079       .  S
C1281      C1282   1.421       .  A
C1282      N1283   1.432       .  S
N1283      O1287   1.261       .  A
N1283      O1288   1.262       .  A
N1286      O1290   1.262       .  A
N1286      O1289   1.262       .  A
C1291      C1292   1.397       .  A
C1291      C1296   1.409       .  A
C1291      H1298   1.084       .  S
C1292      C1293   1.396       .  A
C1293      C1294   1.379       .  A
C1293      N1300   1.431       .  S
C1294      C1295   1.415       .  A
C1294      H1299   1.079       .  S
C1295      C1296   1.434       .  A
C1296      N1297   1.433       .  S
N1297      O1301   1.261       .  A
N1297      O1302   1.262       .  A
N1300      O1304   1.262       .  A
N1300      O1303   1.262       .  A
C1305      C1306   1.423       .  A
C1305      C1310   1.417       .  A
C1305      H1312   1.070       .  S
C1306      C1307   1.440       .  A
C1307      C1308   1.406       .  A
C1307      N1314   1.428       .  S
C1308      C1309   1.394       .  A
C1308      H1313   1.085       .  S
C1309      C1310   1.408       .  A
C1310      N1311   1.427       .  S
N1311      O1315   1.262       .  A
N1311      O1316   1.262       .  A
N1314      O1318   1.263       .  A
N1314      O1317   1.262       .  A
C1319      C1320   1.389       .  A
C1319      C1324   1.401       .  A
C1319      H1326   1.084       .  S
C1320      C1321   1.413       .  A
C1321      C1322   1.402       .  A
C1321      N1328   1.432       .  S
C1322      C1323   1.417       .  A
C1322      H1327   1.078       .  S
C1323      C1324   1.441       .  A
C1324      N1325   1.429       .  S
N1325      O1329   1.262       .  A
N1325      O1330   1.262       .  A
N1328      O1332   1.262       .  A
N1328      O1331   1.261       .  A
C1333      C1334   1.419   1_455  A
C1333      C1338   1.402       .  A
C1333      H1340   1.071       .  S
C1334      C1335   1.432       .  A
C1335      C1336   1.400       .  A
C1335      N1342   1.433       .  S
C1336      C1337   1.409       .  A
C1336      H1341   1.084       .  S
C1337      C1338   1.403   1_655  A
C1338      N1339   1.428       .  S
N1339      O1343   1.262   1_556  A
N1339      O1344   1.262       .  A
N1342      O1346   1.262       .  A
N1342      O1345   1.262       .  A
C1347      C1348   1.416       .  A
C1347      C1352   1.397       .  A
C1347      H1354   1.081       .  S
C1348      C1349   1.449       .  A
C1349      C1350   1.397       .  A
C1349      N1356   1.438       .  S
C1350      C1351   1.387       .  A
C1350      H1355   1.085       .  S
C1351      C1352   1.404       .  A
C1352      N1353   1.441       .  S
N1353      O1357   1.262       .  A
N1353      O1358   1.263       .  A
N1356      O1360   1.260       .  A
N1356      O1359   1.262   1_556  A
C1361      C1362   1.416       .  A
C1361      C1366   1.404   1_545  A
C1361      H1368   1.069       .  S
C1362      C1363   1.439       .  A
C1363      C1364   1.411   1_545  A
C1363      N1370   1.430       .  S
C1364      C1365   1.395       .  A
C1364      H1369   1.084       .  S
C1365      C1366   1.404       .  A
C1366      N1367   1.428       .  S
N1367      O1371   1.262   1_565  A
N1367      O1372   1.262       .  A
N1370      O1374   1.262       .  A
N1370      O1373   1.263   1_545  A
C1375      C1376   1.406       .  A
C1375      C1380   1.388   1_655  A
C1375      H1382   1.070   1_655  S
C1376      C1377   1.442       .  A
C1377      C1378   1.415       .  A
C1377      N1384   1.432       .  S
C1378      C1379   1.399       .  A
C1378      H1383   1.084   1_554  S
C1379      C1380   1.407   1_655  A
C1380      N1381   1.430       .  S
N1381      O1385   1.261       .  A
N1381      O1386   1.262       .  A
N1384      O1388   1.262   1_554  A
N1384      O1387   1.262       .  A
C1389      C1390   1.420       .  A
C1389      C1394   1.398       .  A
C1389      H1396   1.078       .  S
C1390      C1391   1.432       .  A
C1391      C1392   1.406       .  A
C1391      N1398   1.425       .  S
C1392      C1393   1.393       .  A
C1392      H1397   1.084       .  S
C1393      C1394   1.402       .  A
C1394      N1395   1.431       .  S
N1395      O1399   1.262       .  A
N1395      O1400   1.262       .  A
N1398      O1402   1.262   1_455  A
N1398      O1401   1.262       .  A
C1403      C1404   1.397       .  A
C1403      C1408   1.409       .  A
C1403      H1410   1.085       .  S
C1404      C1405   1.400   1_655  A
C1405      C1406   1.395       .  A
C1405      N1412   1.424       .  S
C1406      C1407   1.414   1_455  A
C1406      H1411   1.084       .  S
C1407      C1408   1.440       .  A
C1408      N1409   1.430       .  S
N1409      O1413   1.262       .  A
N1409      O1414   1.261       .  A
N1412      O1416   1.262       .  A
N1412      O1415   1.262   1_554  A
C1417      C1418   1.405   1_455  A
C1417      C1422   1.402       .  A
C1417      H1424   1.080       .  S
C1418      C1419   1.433       .  A
C1419      C1420   1.410       .  A
C1419      N1426   1.424       .  S
C1420      C1421   1.399       .  A
C1420      H1425   1.084       .  S
C1421      C1422   1.426   1_655  A
C1422      N1423   1.426       .  S
N1423      O1427   1.262       .  A
N1423      O1428   1.262       .  A
N1426      O1430   1.262       .  A
N1426      O1429   1.262       .  A
C1431      C1432   1.401       .  A
C1431      C1436   1.407       .  A
C1431      H1438   1.084       .  S
C1432      C1433   1.419   1_655  A
C1433      C1434   1.406       .  A
C1433      N1440   1.429       .  S
C1434      C1435   1.414   1_455  A
C1434      H1439   1.084       .  S
C1435      C1436   1.439       .  A
C1436      N1437   1.433       .  S
N1437      O1441   1.260       .  A
N1437      O1442   1.262       .  A
N1440      O1444   1.262       .  A
N1440      O1443   1.262       .  A
C1445      C1446   1.405       .  A
C1445      C1450   1.404       .  A
C1445      H1452   1.083       .  S
C1446      C1447   1.407       .  A
C1447      C1448   1.412       .  A
C1447      N1454   1.427       .  S
C1448      C1449   1.426       .  A
C1448      H1453   1.077       .  S
C1449      C1450   1.433       .  A
C1450      N1451   1.431       .  S
N1451      O1455   1.262       .  A
N1451      O1456   1.261       .  A
N1454      O1458   1.262       .  A
N1454      O1457   1.262       .  A
C1459      C1460   1.389       .  A
C1459      C1464   1.385       .  A
C1459      H1466   1.084       .  S
C1460      C1461   1.406       .  A
C1461      C1462   1.407       .  A
C1461      N1468   1.429       .  S
C1462      C1463   1.426       .  A
C1462      H1467   1.079       .  S
C1463      C1464   1.432       .  A
C1464      N1465   1.425       .  S
N1465      O1469   1.263       .  A
N1465      O1470   1.263       .  A
N1468      O1472   1.262       .  A
N1468      O1471   1.262       .  A
C1473      C1474   1.387       .  A
C1473      C1478   1.390       .  A
C1473      H1480   1.085       .  S
C1474      C1475   1.408       .  A
C1475      C1476   1.397       .  A
C1475      N1482   1.428       .  S
C1476      C1477   1.414       .  A
C1476      H1481   1.080       .  S
C1477      C1478   1.433       .  A
C1478      N1479   1.423       .  S
N1479      O1483   1.263       .  A
N1479      O1484   1.263       .  A
N1482      O1486   1.262       .  A
N1482      O1485   1.262       .  A
C1487      C1488   1.411       .  A
C1487      C1492   1.384       .  A
C1487      H1494   1.084       .  S
C1488      C1489   1.441       .  A
C1489      C1490   1.414       .  A
C1489      N1496   1.435       .  S
C1490      C1491   1.403       .  A
C1490      H1495   1.084   1_556  S
C1491      C1492   1.410       .  A
C1492      N1493   1.429       .  S
N1493      O1497   1.261       .  A
N1493      O1498   1.262       .  A
N1496      O1500   1.260       .  A
N1496      O1499   1.261   1_556  A
C1501      C1502   1.406       .  A
C1501      C1506   1.385       .  A
C1501      H1508   1.077       .  S
C1502      C1503   1.438       .  A
C1503      C1504   1.406       .  A
C1503      N1510   1.434       .  S
C1504      C1505   1.399       .  A
C1504      H1509   1.084       .  S
C1505      C1506   1.416       .  A
C1506      N1507   1.429       .  S
N1507      O1511   1.262       .  A
N1507      O1512   1.262       .  A
N1510      O1514   1.262       .  A
N1510      O1513   1.261       .  A
C1515      C1516   1.418       .  A
C1515      C1520   1.412       .  A
C1515      H1522   1.079       .  S
C1516      C1517   1.438       .  A
C1517      C1518   1.398       .  A
C1517      N1524   1.424       .  S
C1518      C1519   1.386       .  A
C1518      H1523   1.085       .  S
C1519      C1520   1.409       .  A
C1520      N1521   1.427       .  S
N1521      O1525   1.262       .  A
N1521      O1526   1.262       .  A
N1524      O1528   1.263       .  A
N1524      O1527   1.263       .  A
C1529      C1530   1.402   1_565  A
C1529      C1534   1.423       .  A
C1529      H1536   1.084       .  S
C1530      C1531   1.410       .  A
C1531      C1532   1.409       .  A
C1531      N1538   1.422       .  S
C1532      C1533   1.418       .  A
C1532      H1537   1.084       .  S
C1533      C1534   1.445   1_545  A
C1534      N1535   1.429       .  S
N1535      O1539   1.262       .  A
N1535      O1540   1.261       .  A
N1538      O1542   1.262       .  A
N1538      O1541   1.262       .  A
C1543      C1544   1.421       .  A
C1543      C1548   1.397       .  A
C1543      H1550   1.075       .  S
C1544      C1545   1.430   1_545  A
C1545      C1546   1.407       .  A
C1545      N1552   1.431       .  S
C1546      C1547   1.406   1_565  A
C1546      H1551   1.084       .  S
C1547      C1548   1.402       .  A
C1548      N1549   1.428       .  S
N1549      O1553   1.262       .  A
N1549      O1554   1.262       .  A
N1552      O1556   1.261       .  A
N1552      O1555   1.262       .  A
C1557      C1558   1.392       .  A
C1557      C1562   1.410       .  A
C1557      H1564   1.084       .  S
C1558      C1559   1.417       .  A
C1559      C1560   1.410       .  A
C1559      N1566   1.430       .  S
C1560      C1561   1.419       .  A
C1560      H1565   1.078       .  S
C1561      C1562   1.441       .  A
C1562      N1563   1.424       .  S
N1563      O1567   1.262       .  A
N1563      O1568   1.263       .  A
N1566      O1570   1.262       .  A
N1566      O1569   1.262       .  A
C1571      C1572   1.403       .  A
C1571      C1576   1.409       .  A
C1571      H1578   1.084       .  S
C1572      C1573   1.398       .  A
C1573      C1574   1.385       .  A
C1573      N1580   1.429       .  S
C1574      C1575   1.417       .  A
C1574      H1579   1.074       .  S
C1575      C1576   1.433       .  A
C1576      N1577   1.434       .  S
N1577      O1581   1.261       .  A
N1577      O1582   1.262       .  A
N1580      O1584   1.262       .  A
N1580      O1583   1.262       .  A
C1585      C1586   1.394       .  A
C1585      C1590   1.404       .  A
C1585      H1592   1.085       .  S
C1586      C1587   1.407       .  A
C1587      C1588   1.401       .  A
C1587      N1594   1.426       .  S
C1588      C1589   1.409       .  A
C1588      H1593   1.078       .  S
C1589      C1590   1.442       .  A
C1590      N1591   1.434       .  S
N1591      O1595   1.261   1_655  A
N1591      O1596   1.262   1_655  A
N1594      O1598   1.262       .  A
N1594      O1597   1.260       .  A
C1599      C1600   1.414       .  A
C1599      C1604   1.414       .  A
C1599      H1606   1.073       .  S
C1600      C1601   1.447       .  A
C1601      C1602   1.412       .  A
C1601      N1608   1.431       .  S
C1602      C1603   1.401       .  A
C1602      H1607   1.084       .  S
C1603      C1604   1.418       .  A
C1604      N1605   1.427       .  S
N1605      O1609   1.262       .  A
N1605      O1610   1.262       .  A
N1608      O1612   1.263       .  A
N1608      O1611   1.262       .  A
C1613      C1614   1.423       .  A
C1613      C1618   1.421       .  A
C1613      H1620   1.079       .  S
C1614      C1615   1.439       .  A
C1615      C1616   1.402       .  A
C1615      N1622   1.429       .  S
C1616      C1617   1.390       .  A
C1616      H1621   1.085       .  S
C1617      C1618   1.409       .  A
C1618      N1619   1.428       .  S
N1619      O1623   1.262       .  A
N1619      O1624   1.262       .  A
N1622      O1626   1.262       .  A
N1622      O1625   1.262       .  A
C1627      C1628   1.398       .  A
C1627      C1632   1.398       .  A
C1627      H1634   1.085       .  S
C1628      C1629   1.412       .  A
C1629      C1630   1.414       .  A
C1629      N1636   1.427       .  S
C1630      C1631   1.417       .  A
C1630      H1635   1.079       .  S
C1631      C1632   1.442       .  A
C1632      N1633   1.435       .  S
N1633      O1637   1.262       .  A
N1633      O1638   1.262       .  A
N1636      O1640   1.262       .  A
N1636      O1639   1.262       .  A
C1641      C1642   1.393       .  A
C1641      C1646   1.393       .  A
C1641      H1648   1.085       .  S
C1642      C1643   1.406       .  A
C1643      C1644   1.396       .  A
C1643      N1650   1.428       .  S
C1644      C1645   1.407       .  A
C1644      H1649   1.080       .  S
C1645      C1646   1.435       .  A
C1646      N1647   1.433       .  S
N1647      O1651   1.262       .  A
N1647      O1652   1.262       .  A
N1650      O1654   1.262       .  A
N1650      O1653   1.262       .  A
C1655      C1656   1.409       .  A
C1655      C1660   1.412       .  A
C1655      H1662   1.078       .  S
C1656      C1657   1.443       .  A
C1657      C1658   1.400       .  A
C1657      N1664   1.433       .  S
C1658      C1659   1.389       .  A
C1658      H1663   1.085       .  S
C1659      C1660   1.415       .  A
C1660      N1661   1.427       .  S
N1661      O1665   1.262   1_565  A
N1661      O1666   1.262       .  A
N1664      O1668   1.262       .  A
N1664      O1667   1.262       .  A
C1669      C1670   1.416       .  A
C1669      C1674   1.386       .  A
C1669      H1676   1.079       .  S
C1670      C1671   1.441       .  A
C1671      C1672   1.425       .  A
C1671      N1678   1.431       .  S
C1672      C1673   1.405       .  A
C1672      H1677   1.083       .  S
C1673      C1674   1.405       .  A
C1674      N1675   1.431       .  S
N1675      O1679   1.261       .  A
N1675      O1680   1.261       .  A
N1678      O1682   1.261       .  A
N1678      O1681   1.262       .  A
C1683      C1684   1.396       .  A
C1683      C1688   1.398       .  A
C1683      H1690   1.084       .  S
C1684      C1685   1.411       .  A
C1685      C1686   1.399       .  A
C1685      N1692   1.429       .  S
C1686      C1687   1.416       .  A
C1686      H1691   1.081       .  S
C1687      C1688   1.439       .  A
C1688      N1689   1.432       .  S
N1689      O1693   1.262       .  A
N1689      O1694   1.261       .  A
N1692      O1696   1.262       .  A
N1692      O1695   1.261       .  A
C1697      C1698   1.399       .  A
C1697      C1702   1.416       .  A
C1697      H1704   1.084       .  S
C1698      C1699   1.406       .  A
C1699      C1700   1.408       .  A
C1699      N1706   1.428       .  S
C1700      C1701   1.425       .  A
C1700      H1705   1.077       .  S
C1701      C1702   1.440       .  A
C1702      N1703   1.427       .  S
N1703      O1707   1.262       .  A
N1703      O1708   1.262       .  A
N1706      O1710   1.262       .  A
N1706      O1709   1.262       .  A
C1711      C1712   1.428       .  A
C1711      C1716   1.425       .  A
C1711      H1718   1.071       .  S
C1712      C1713   1.437       .  A
C1713      C1714   1.403       .  A
C1713      N1720   1.427       .  S
C1714      C1715   1.398       .  A
C1714      H1719   1.084       .  S
C1715      C1716   1.411       .  A
C1716      N1717   1.427       .  S
N1717      O1721   1.262       .  A
N1717      O1722   1.262       .  A
N1720      O1724   1.263       .  A
N1720      O1723   1.262       .  A
C1725      C1726   1.413       .  A
C1725      C1730   1.404       .  A
C1725      H1732   1.079       .  S
C1726      C1727   1.447       .  A
C1727      C1728   1.396       .  A
C1727      N1734   1.432       .  S
C1728      C1729   1.385       .  A
C1728      H1733   1.085       .  S
C1729      C1730   1.407       .  A
C1730      N1731   1.428       .  S
N1731      O1735   1.262       .  A
N1731      O1736   1.262       .  A
N1734      O1738   1.260       .  A
N1734      O1737   1.262       .  A
C1739      C1740   1.423   1_655  A
C1739      C1744   1.395   1_655  A
C1739      H1746   1.084       .  S
C1740      C1741   1.429       .  A
C1741      C1742   1.415       .  A
C1741      N1748   1.428       .  S
C1742      C1743   1.407       .  A
C1742      H1747   1.084       .  S
C1743      C1744   1.402       .  A
C1744      N1745   1.429       .  S
N1745      O1749   1.262   1_455  A
N1745      O1750   1.262       .  A
N1748      O1752   1.261       .  A
N1748      O1751   1.262   1_455  A
C1753      C1754   1.417   1_655  A
C1753      C1758   1.406       .  A
C1753      H1760   1.083       .  S
C1754      C1755   1.442       .  A
C1755      C1756   1.404       .  A
C1755      N1762   1.431       .  S
C1756      C1757   1.401   1_455  A
C1756      H1761   1.084       .  S
C1757      C1758   1.415       .  A
C1758      N1759   1.428       .  S
N1759      O1763   1.262       .  A
N1759      O1764   1.262       .  A
N1762      O1766   1.262       .  A
N1762      O1765   1.261       .  A
C1767      C1768   1.403       .  A
C1767      C1772   1.396       .  A
C1767      H1774   1.080       .  S
C1768      C1769   1.406       .  A
C1769      C1770   1.415       .  A
C1769      N1776   1.427       .  S
C1770      C1771   1.433       .  A
C1770      H1775   1.081       .  S
C1771      C1772   1.420       .  A
C1772      N1773   1.425       .  S
N1773      O1777   1.262       .  A
N1773      O1778   1.262       .  A
N1776      O1780   1.262       .  A
N1776      O1779   1.262       .  A
C1781      C1782   1.400       .  A
C1781      C1786   1.414       .  A
C1781      H1788   1.084       .  S
C1782      C1783   1.398       .  A
C1783      C1784   1.399       .  A
C1783      N1790   1.433       .  S
C1784      C1785   1.422       .  A
C1784      H1789   1.081       .  S
C1785      C1786   1.439       .  A
C1786      N1787   1.436       .  S
N1787      O1791   1.260       .  A
N1787      O1792   1.260       .  A
N1790      O1794   1.262       .  A
N1790      O1793   1.262       .  A
C1795      C1796   1.414       .  A
C1795      C1800   1.398       .  A
C1795      H1802   1.077       .  S
C1796      C1797   1.445       .  A
C1797      C1798   1.420       .  A
C1797      N1804   1.430       .  S
C1798      C1799   1.399       .  A
C1798      H1803   1.084       .  S
C1799      C1800   1.411       .  A
C1800      N1801   1.430       .  S
N1801      O1805   1.262       .  A
N1801      O1806   1.262       .  A
N1804      O1808   1.261       .  A
N1804      O1807   1.262       .  A
C1809      C1810   1.416       .  A
C1809      C1814   1.410       .  A
C1809      H1816   1.071       .  S
C1810      C1811   1.428       .  A
C1811      C1812   1.402       .  A
C1811      N1818   1.434       .  S
C1812      C1813   1.412       .  A
C1812      H1817   1.081       .  S
C1813      C1814   1.407       .  A
C1814      N1815   1.427       .  S
N1815      O1819   1.261       .  A
N1815      O1820   1.262       .  A
N1818      O1822   1.262       .  A
N1818      O1821   1.261       .  A
C1823      C1824   1.409       .  A
C1823      C1828   1.378       .  A
C1823      H1830   1.082       .  S
C1824      C1825   1.439       .  A
C1825      C1826   1.414       .  A
C1825      N1832   1.432       .  S
C1826      C1827   1.403       .  A
C1826      H1831   1.084       .  S
C1827      C1828   1.408       .  A
C1828      N1829   1.429       .  S
N1829      O1833   1.262       .  A
N1829      O1834   1.263       .  A
N1832      O1836   1.262       .  A
N1832      O1835   1.261       .  A
C1837      C1838   1.398       .  A
C1837      C1842   1.408       .  A
C1837      H1844   1.084       .  S
C1838      C1839   1.420       .  A
C1839      C1840   1.415       .  A
C1839      N1846   1.428       .  S
C1840      C1841   1.414       .  A
C1840      H1845   1.076       .  S
C1841      C1842   1.448       .  A
C1842      N1843   1.434       .  S
N1843      O1847   1.262       .  A
N1843      O1848   1.262       .  A
N1846      O1850   1.262       .  A
N1846      O1849   1.262       .  A
C1851      C1852   1.423       .  A
C1851      C1856   1.417       .  A
C1851      H1858   1.077       .  S
C1852      C1853   1.439       .  A
C1853      C1854   1.409       .  A
C1853      N1860   1.429       .  S
C1854      C1855   1.397       .  A
C1854      H1859   1.085       .  S
C1855      C1856   1.410       .  A
C1856      N1857   1.427       .  S
N1857      O1861   1.262   1_455  A
N1857      O1862   1.262       .  A
N1860      O1864   1.262       .  A
N1860      O1863   1.262       .  A
C1865      C1866   1.411       .  A
C1865      C1870   1.377       .  A
C1865      H1872   1.072       .  S
C1866      C1867   1.434       .  A
C1867      C1868   1.407       .  A
C1867      N1874   1.434       .  S
C1868      C1869   1.402       .  A
C1868      H1873   1.084       .  S
C1869      C1870   1.395       .  A
C1870      N1871   1.427       .  S
N1871      O1875   1.262       .  A
N1871      O1876   1.261       .  A
N1874      O1878   1.261   1_556  A
N1874      O1877   1.262       .  A
C1879      C1880   1.414       .  A
C1879      C1884   1.382       .  A
C1879      H1886   1.079       .  S
C1880      C1881   1.428   1_556  A
C1881      C1882   1.400       .  A
C1881      N1888   1.432       .  S
C1882      C1883   1.401   1_554  A
C1882      H1887   1.084       .  S
C1883      C1884   1.405       .  A
C1884      N1885   1.429       .  S
N1885      O1889   1.261       .  A
N1885      O1890   1.262       .  A
N1888      O1892   1.262       .  A
N1888      O1891   1.262       .  A
C1893      C1894   1.411       .  A
C1893      C1898   1.379       .  A
C1893      H1900   1.071       .  S
C1894      C1895   1.429       .  A
C1895      C1896   1.401       .  A
C1895      N1902   1.434       .  S
C1896      C1897   1.401       .  A
C1896      H1901   1.084       .  S
C1897      C1898   1.397       .  A
C1898      N1899   1.430       .  S
N1899      O1903   1.262       .  A
N1899      O1904   1.262   1_556  A
N1902      O1906   1.261       .  A
N1902      O1905   1.262       .  A
C1907      C1908   1.408       .  A
C1907      C1912   1.398       .  A
C1907      H1914   1.083       .  S
C1908      C1909   1.404       .  A
C1909      C1910   1.388       .  A
C1909      N1916   1.430       .  S
C1910      C1911   1.420       .  A
C1910      H1915   1.079       .  S
C1911      C1912   1.424       .  A
C1912      N1913   1.433       .  S
N1913      O1917   1.262       .  A
N1913      O1918   1.262       .  A
N1916      O1920   1.262       .  A
N1916      O1919   1.262       .  A
C1921      C1922   1.421       .  A
C1921      C1926   1.400       .  A
C1921      H1928   1.074       .  S
C1922      C1923   1.434       .  A
C1923      C1924   1.393       .  A
C1923      N1930   1.435       .  S
C1924      C1925   1.394       .  A
C1924      H1929   1.079       .  S
C1925      C1926   1.398       .  A
C1926      N1927   1.428       .  S
N1927      O1931   1.262       .  A
N1927      O1932   1.262       .  A
N1930      O1934   1.262       .  A
N1930      O1933   1.262       .  A
C1935      C1936   1.418       .  A
C1935      C1940   1.394       .  A
C1935      H1942   1.078       .  S
C1936      C1937   1.429       .  A
C1937      C1938   1.397       .  A
C1937      N1944   1.431   1_554  S
C1938      C1939   1.395       .  A
C1938      H1943   1.085       .  S
C1939      C1940   1.400       .  A
C1940      N1941   1.429   1_554  S
N1941      O1945   1.262       .  A
N1941      O1946   1.261   1_556  A
N1944      O1948   1.261   1_556  A
N1944      O1947   1.262       .  A
C1949      C1950   1.411       .  A
C1949      C1954   1.395       .  A
C1949      H1956   1.070       .  S
C1950      C1951   1.427       .  A
C1951      C1952   1.389       .  A
C1951      N1958   1.433   1_554  S
C1952      C1953   1.400       .  A
C1952      H1957   1.085   1_554  S
C1953      C1954   1.404       .  A
C1954      N1955   1.428       .  S
N1955      O1959   1.262       .  A
N1955      O1960   1.262       .  A
N1958      O1962   1.262   1_556  A
N1958      O1961   1.262       .  A
C1963      C1964   1.431       .  A
C1963      C1968   1.421       .  A
C1963      H1970   1.074   1_565  S
C1964      C1965   1.425       .  A
C1965      C1966   1.396       .  A
C1965      N1972   1.427       .  S
C1966      C1967   1.405       .  A
C1966      H1971   1.075       .  S
C1967      C1968   1.408       .  A
C1968      N1969   1.427       .  S
N1969      O1973   1.262       .  A
N1969      O1974   1.262       .  A
N1972      O1976   1.262       .  A
N1972      O1975   1.262       .  A
C1977      C1978   1.420       .  A
C1977      C1982   1.397       .  A
C1977      H1984   1.075       .  S
C1978      C1979   1.442       .  A
C1979      C1980   1.413       .  A
C1979      N1986   1.433       .  S
C1980      C1981   1.401       .  A
C1980      H1985   1.084       .  S
C1981      C1982   1.400       .  A
C1982      N1983   1.428       .  S
N1983      O1987   1.261       .  A
N1983      O1988   1.262       .  A
N1986      O1990   1.262       .  A
N1986      O1989   1.262       .  A
C1991      C1992   1.425       .  A
C1991      C1996   1.406       .  A
C1991      H1998   1.075       .  S
C1992      C1993   1.433   1_565  A
C1993      C1994   1.410       .  A
C1993      N2000   1.435       .  S
C1994      C1995   1.409   1_545  A
C1994      H1999   1.084       .  S
C1995      C1996   1.404       .  A
C1996      N1997   1.428       .  S
N1997      O2001   1.262       .  A
N1997      O2002   1.262       .  A
N2000      O2004   1.261       .  A
N2000      O2003   1.262       .  A
C2005      C2006   1.414       .  A
C2005      C2010   1.405       .  A
C2005      H2012   1.084       .  S
C2006      C2007   1.445   1_545  A
C2007      C2008   1.431   1_565  A
C2007      N2014   1.433       .  S
C2008      C2009   1.409       .  A
C2008      H2013   1.083   1_545  S
C2009      C2010   1.421       .  A
C2010      N2011   1.429       .  S
N2011      O2015   1.262   1_545  A
N2011      O2016   1.262       .  A
N2014      O2018   1.261   1_565  A
N2014      O2017   1.260       .  A
C2019      C2020   1.431       .  A
C2019      C2024   1.410       .  A
C2019      H2026   1.077       .  S
C2020      C2021   1.426       .  A
C2021      C2022   1.404       .  A
C2021      N2028   1.434       .  S
C2022      C2023   1.409       .  A
C2022      H2027   1.081       .  S
C2023      C2024   1.401       .  A
C2024      N2025   1.430       .  S
N2025      O2029   1.262       .  A
N2025      O2030   1.262       .  A
N2028      O2032   1.262       .  A
N2028      O2031   1.261       .  A
C2033      C2034   1.419       .  A
C2033      C2038   1.389       .  A
C2033      H2040   1.077       .  S
C2034      C2035   1.434       .  A
C2035      C2036   1.411       .  A
C2035      N2042   1.431       .  S
C2036      C2037   1.400       .  A
C2036      H2041   1.084       .  S
C2037      C2038   1.398       .  A
C2038      N2039   1.430       .  S
N2039      O2043   1.262       .  A
N2039      O2044   1.261       .  A
N2042      O2046   1.262       .  A
N2042      O2045   1.262       .  A
C2047      C2048   1.431       .  A
C2047      C2052   1.409       .  A
C2047      H2054   1.077       .  S
C2048      C2049   1.424       .  A
C2049      C2050   1.380       .  A
C2049      N2056   1.427       .  S
C2050      C2051   1.393       .  A
C2050      H2055   1.083       .  S
C2051      C2052   1.395       .  A
C2052      N2053   1.429   1_554  S
N2053      O2057   1.262       .  A
N2053      O2058   1.262       .  A
N2056      O2060   1.263       .  A
N2056      O2059   1.263       .  A
C2061      C2062   1.419       .  A
C2061      C2066   1.380       .  A
C2061      H2068   1.084       .  S
C2062      C2063   1.438       .  A
C2063      C2064   1.398       .  A
C2063      N2070   1.429       .  S
C2064      C2065   1.390       .  A
C2064      H2069   1.085       .  S
C2065      C2066   1.397       .  A
C2066      N2067   1.430   1_556  S
N2067      O2071   1.261   1_554  A
N2067      O2072   1.262       .  A
N2070      O2074   1.261   1_556  A
N2070      O2073   1.263       .  A
C2075      C2076   1.418       .  A
C2075      C2080   1.390       .  A
C2075      H2082   1.084       .  S
C2076      C2077   1.436   1_556  A
C2077      C2078   1.386       .  A
C2077      N2084   1.435       .  S
C2078      C2079   1.392   1_554  A
C2078      H2083   1.086       .  S
C2079      C2080   1.398       .  A
C2080      N2081   1.429       .  S
N2081      O2085   1.262       .  A
N2081      O2086   1.262       .  A
N2084      O2088   1.262       .  A
N2084      O2087   1.261       .  A
C2089      C2090   1.391       .  A
C2089      C2094   1.395       .  A
C2089      H2096   1.085       .  S
C2090      C2091   1.409       .  A
C2091      C2092   1.399       .  A
C2091      N2098   1.428       .  S
C2092      C2093   1.409       .  A
C2092      H2097   1.078       .  S
C2093      C2094   1.440       .  A
C2094      N2095   1.433       .  S
N2095      O2099   1.263       .  A
N2095      O2100   1.261       .  A
N2098      O2102   1.261       .  A
N2098      O2101   1.262       .  A
C2103      C2104   1.402       .  A
C2103      C2108   1.400       .  A
C2103      H2110   1.085       .  S
C2104      C2105   1.411       .  A
C2105      C2106   1.419       .  A
C2105      N2112   1.428       .  S
C2106      C2107   1.423       .  A
C2106      H2111   1.084       .  S
C2107      C2108   1.443       .  A
C2108      N2109   1.435       .  S
N2109      O2113   1.259       .  A
N2109      O2114   1.262       .  A
N2112      O2116   1.262       .  A
N2112      O2115   1.262       .  A
C2117      C2118   1.408       .  A
C2117      C2122   1.429       .  A
C2117      H2124   1.083       .  S
C2118      C2119   1.414       .  A
C2119      C2120   1.399       .  A
C2119      N2126   1.430       .  S
C2120      C2121   1.418       .  A
C2120      H2125   1.079       .  S
C2121      C2122   1.441       .  A
C2122      N2123   1.431       .  S
N2123      O2127   1.260   1_655  A
N2123      O2128   1.262       .  A
N2126      O2130   1.261       .  A
N2126      O2129   1.262       .  A
C2131      C2132   1.413       .  A
C2131      C2136   1.386       .  A
C2131      H2138   1.083       .  S
C2132      C2133   1.441       .  A
C2133      C2134   1.424       .  A
C2133      N2140   1.429       .  S
C2134      C2135   1.406       .  A
C2134      H2139   1.083       .  S
C2135      C2136   1.407       .  A
C2136      N2137   1.431       .  S
N2137      O2141   1.262       .  A
N2137      O2142   1.262       .  A
N2140      O2144   1.261       .  A
N2140      O2143   1.262       .  A
C2145      C2146   1.404       .  A
C2145      C2150   1.418       .  A
C2145      H2152   1.084       .  S
C2146      C2147   1.403       .  A
C2147      C2148   1.399       .  A
C2147      N2154   1.429       .  S
C2148      C2149   1.423       .  A
C2148      H2153   1.083       .  S
C2149      C2150   1.438       .  A
C2150      N2151   1.434       .  S
N2151      O2155   1.261       .  A
N2151      O2156   1.260       .  A
N2154      O2158   1.262       .  A
N2154      O2157   1.262       .  A
C2159      C2160   1.414       .  A
C2159      C2164   1.395       .  A
C2159      H2166   1.077       .  S
C2160      C2161   1.440       .  A
C2161      C2162   1.396       .  A
C2161      N2168   1.432       .  S
C2162      C2163   1.388       .  A
C2162      H2167   1.085       .  S
C2163      C2164   1.406       .  A
C2164      N2165   1.429       .  S
N2165      O2169   1.261       .  A
N2165      O2170   1.262       .  A
N2168      O2172   1.262       .  A
N2168      O2171   1.262       .  A
C2173      C2174   1.425       .  A
C2173      C2178   1.408       .  A
C2173      H2180   1.083       .  S
C2174      C2175   1.433       .  A
C2175      C2176   1.402       .  A
C2175      N2182   1.435       .  S
C2176      C2177   1.400       .  A
C2176      H2181   1.081       .  S
C2177      C2178   1.405       .  A
C2178      N2179   1.427       .  S
N2179      O2183   1.262       .  A
N2179      O2184   1.262       .  A
N2182      O2186   1.263       .  A
N2182      O2185   1.262       .  A
C2187      C2188   1.415       .  A
C2187      C2192   1.399       .  A
C2187      H2194   1.076       .  S
C2188      C2189   1.440       .  A
C2189      C2190   1.397       .  A
C2189      N2196   1.438       .  S
C2190      C2191   1.394       .  A
C2190      H2195   1.085       .  S
C2191      C2192   1.404       .  A
C2192      N2193   1.428       .  S
N2193      O2197   1.262       .  A
N2193      O2198   1.261       .  A
N2196      O2200   1.261       .  A
N2196      O2199   1.263       .  A
C2201      C2202   1.421       .  A
C2201      C2206   1.411       .  A
C2201      H2208   1.080       .  S
C2202      C2203   1.429       .  A
C2203      C2204   1.404       .  A
C2203      N2210   1.426       .  S
C2204      C2205   1.402       .  A
C2204      H2209   1.084       .  S
C2205      C2206   1.410       .  A
C2206      N2207   1.426       .  S
N2207      O2211   1.262       .  A
N2207      O2212   1.262       .  A
N2210      O2214   1.262       .  A
N2210      O2213   1.263       .  A
C2215      C2216   1.404       .  A
C2215      C2220   1.404       .  A
C2215      H2222   1.084       .  S
C2216      C2217   1.452       .  A
C2217      C2218   1.421       .  A
C2217      N2224   1.433       .  S
C2218      C2219   1.399       .  A
C2218      H2223   1.084       .  S
C2219      C2220   1.411       .  A
C2220      N2221   1.413       .  S
N2221      O2225   1.262       .  A
N2221      O2226   1.263       .  A
N2224      O2228   1.262       .  A
N2224      O2227   1.261       .  A
C2229      C2230   1.405       .  A
C2229      C2234   1.406       .  A
C2229      H2236   1.084       .  S
C2230      C2231   1.408       .  A
C2231      C2232   1.388       .  A
C2231      N2238   1.429       .  S
C2232      C2233   1.410       .  A
C2232      H2237   1.076       .  S
C2233      C2234   1.429       .  A
C2234      N2235   1.434       .  S
N2235      O2239   1.262       .  A
N2235      O2240   1.261       .  A
N2238      O2242   1.261       .  A
N2238      O2241   1.262       .  A
C2243      C2244   1.391       .  A
C2243      C2248   1.390       .  A
C2243      H2250   1.085       .  S
C2244      C2245   1.404       .  A
C2245      C2246   1.391       .  A
C2245      N2252   1.428       .  S
C2246      C2247   1.412       .  A
C2246      H2251   1.079       .  S
C2247      C2248   1.436       .  A
C2248      N2249   1.433       .  S
N2249      O2253   1.262       .  A
N2249      O2254   1.262       .  A
N2252      O2256   1.262       .  A
N2252      O2255   1.262       .  A
C2257      C2258   1.401       .  A
C2257      C2262   1.420       .  A
C2257      H2264   1.083       .  S
C2258      C2259   1.416       .  A
C2259      C2260   1.396       .  A
C2259      N2266   1.431       .  S
C2260      C2261   1.414       .  A
C2260      H2265   1.079       .  S
C2261      C2262   1.441       .  A
C2262      N2263   1.430       .  S
N2263      O2267   1.262       .  A
N2263      O2268   1.262       .  A
N2266      O2270   1.262       .  A
N2266      O2269   1.262       .  A
C2271      C2272   1.410       .  A
C2271      C2276   1.405       .  A
C2271      H2278   1.084       .  S
C2272      C2273   1.404       .  A
C2273      C2274   1.392       .  A
C2273      N2280   1.428       .  S
C2274      C2275   1.418       .  A
C2274      H2279   1.078       .  S
C2275      C2276   1.422       .  A
C2276      N2277   1.434       .  S
N2277      O2281   1.262       .  A
N2277      O2282   1.261       .  A
N2280      O2284   1.262       .  A
N2280      O2283   1.262       .  A
C2285      C2286   1.418       .  A
C2285      C2290   1.387       .  A
C2285      H2292   1.082       .  S
C2286      C2287   1.433       .  A
C2287      C2288   1.402       .  A
C2287      N2294   1.431       .  S
C2288      C2289   1.404       .  A
C2288      H2293   1.084       .  S
C2289      C2290   1.406       .  A
C2290      N2291   1.430       .  S
N2291      O2295   1.262       .  A
N2291      O2296   1.262       .  A
N2294      O2298   1.261       .  A
N2294      O2297   1.262       .  A
C2299      C2300   1.416       .  A
C2299      C2304   1.403       .  A
C2299      H2306   1.084       .  S
C2300      C2301   1.447       .  A
C2301      C2302   1.421       .  A
C2301      N2308   1.429       .  S
C2302      C2303   1.400       .  A
C2302      H2307   1.084       .  S
C2303      C2304   1.415       .  A
C2304      N2305   1.429       .  S
N2305      O2309   1.262   1_545  A
N2305      O2310   1.262       .  A
N2308      O2312   1.261       .  A
N2308      O2311   1.262   1_545  A
C2313      C2314   1.392       .  A
C2313      C2318   1.401       .  A
C2313      H2320   1.085       .  S
C2314      C2315   1.418   1_545  A
C2315      C2316   1.401       .  A
C2315      N2322   1.428       .  S
C2316      C2317   1.407   1_565  A
C2316      H2321   1.084       .  S
C2317      C2318   1.448       .  A
C2318      N2319   1.436       .  S
N2319      O2323   1.260       .  A
N2319      O2324   1.262       .  A
N2322      O2326   1.262       .  A
N2322      O2325   1.262       .  A
C2327      C2328   1.421       .  A
C2327      C2332   1.417       .  A
C2327      H2334   1.078       .  S
C2328      C2329   1.426       .  A
C2329      C2330   1.388       .  A
C2329      N2336   1.432       .  S
C2330      C2331   1.402       .  A
C2330      H2335   1.081       .  S
C2331      C2332   1.408       .  A
C2332      N2333   1.426       .  S
N2333      O2337   1.262       .  A
N2333      O2338   1.262       .  A
N2336      O2340   1.262       .  A
N2336      O2339   1.262       .  A
C2341      C2342   1.395       .  A
C2341      C2346   1.415       .  A
C2341      H2348   1.083       .  S
C2342      C2343   1.412       .  A
C2343      C2344   1.404       .  A
C2343      N2350   1.423       .  S
C2344      C2345   1.411       .  A
C2344      H2349   1.079       .  S
C2345      C2346   1.443       .  A
C2346      N2347   1.428       .  S
N2347      O2351   1.262       .  A
N2347      O2352   1.261       .  A
N2350      O2354   1.258       .  A
N2350      O2353   1.263       .  A
C2355      C2356   1.410       .  A
C2355      C2360   1.411       .  A
C2355      H2362   1.083       .  S
C2356      C2357   1.412       .  A
C2357      C2358   1.393       .  A
C2357      N2364   1.426       .  S
C2358      C2359   1.412       .  A
C2358      H2363   1.077       .  S
C2359      C2360   1.431       .  A
C2360      N2361   1.431       .  S
N2361      O2365   1.263       .  A
N2361      O2366   1.262       .  A
N2364      O2368   1.261       .  A
N2364      O2367   1.260       .  A
C2369      C2370   1.407       .  A
C2369      C2374   1.418       .  A
C2369      H2376   1.084       .  S
C2370      C2371   1.394       .  A
C2371      C2372   1.395       .  A
C2371      N2378   1.431       .  S
C2372      C2373   1.428       .  A
C2372      H2377   1.075       .  S
C2373      C2374   1.430       .  A
C2374      N2375   1.432       .  S
N2375      O2379   1.262       .  A
N2375      O2380   1.262       .  A
N2378      O2382   1.261       .  A
N2378      O2381   1.261       .  A
C2383      C2384   1.397       .  A
C2383      C2388   1.415       .  A
C2383      H2390   1.084       .  S
C2384      C2385   1.404       .  A
C2385      C2386   1.407       .  A
C2385      N2392   1.428       .  S
C2386      C2387   1.425       .  A
C2386      H2391   1.076       .  S
C2387      C2388   1.439       .  A
C2388      N2389   1.425       .  S
N2389      O2393   1.263       .  A
N2389      O2394   1.262       .  A
N2392      O2396   1.262       .  A
N2392      O2395   1.262       .  A
C2397      C2398   1.394       .  A
C2397      C2402   1.407       .  A
C2397      H2404   1.084       .  S
C2398      C2399   1.398       .  A
C2399      C2400   1.389       .  A
C2399      N2406   1.430       .  S
C2400      C2401   1.424       .  A
C2400      H2405   1.076       .  S
C2401      C2402   1.437       .  A
C2402      N2403   1.428       .  S
N2403      O2407   1.262       .  A
N2403      O2408   1.263       .  A
N2406      O2410   1.262       .  A
N2406      O2409   1.262       .  A
C2411      C2412   1.419       .  A
C2411      C2416   1.406       .  A
C2411      H2418   1.078       .  S
C2412      C2413   1.436       .  A
C2413      C2414   1.416       .  A
C2413      N2420   1.433       .  S
C2414      C2415   1.403       .  A
C2414      H2419   1.084       .  S
C2415      C2416   1.406       .  A
C2416      N2417   1.427       .  S
N2417      O2421   1.261       .  A
N2417      O2422   1.262       .  A
N2420      O2424   1.262       .  A
N2420      O2423   1.261       .  A
