geometry optimzed in LAMMPS
_audit_creation_date              2020-11-30 
_audit_creation_method            'lammps2cif' 
_symmetry_space_group_name_H-M    'P1' 
_symmetry_Int_Tables_number       1 
_symmetry_cell_setting            triclinic 
loop_ 
_symmetry_equiv_pos_as_xyz 
  x,y,z 
_cell_length_a                    48.73529955 
_cell_length_b                    48.5271938919938 
_cell_length_c                    48.74226406746788 
_cell_angle_alpha                 89.99378885446251 
_cell_angle_beta                  90.25215931141082 
_cell_angle_gamma                 89.95149128840671 
loop_ 
_atom_site_label 
_atom_site_type_symbol 
_atom_site_fract_x 
_atom_site_fract_y 
_atom_site_fract_z 
_atom_site_charge 
Zn1        Zn  0.76854808  0.78134441  0.78429783     1.49700
Zn2        Zn  0.74256657  0.77663690  0.72569532     1.49400
Zn3        Zn  0.77174422  0.72353146  0.75510515     1.49100
Zn4        Zn  0.71407751  0.74847902  0.77871412     1.49500
O5          O  0.74904122  0.75703099  0.76054884    -1.84000
O6          O  0.76989453  0.81942454  0.77011922    -0.74600
O7          O  0.75836170  0.75501142  0.69380037    -0.74400
O8          O  0.81074957  0.72687675  0.77329933    -0.73900
O9          O  0.75629229  0.81705066  0.72666936    -0.74600
O10         O  0.80634710  0.76892843  0.79039498    -0.74200
O11         O  0.77391286  0.71679321  0.71394896    -0.74800
O12         O  0.70984883  0.70731401  0.77713990    -0.74200
O13         O  0.70186012  0.77520217  0.71733761    -0.75000
O14         O  0.75078496  0.68920871  0.76758811    -0.74300
O15         O  0.68159823  0.76123141  0.75581578    -0.74800
O16         O  0.71191918  0.76285769  0.81873217    -0.74700
O17         O  0.75261230  0.78318721  0.82109764    -0.74500
C18         C  0.76568279  0.83079139  0.74704165     0.77300
C19         C  0.76748756  0.73040511  0.69242396     0.77800
C20         C  0.82065349  0.74745442  0.78651724     0.76700
C21         C  0.72517843  0.68657626  0.77239152     0.77100
C22         C  0.68045574  0.76863869  0.73075331     0.78200
C23         C  0.73033047  0.77593597  0.83217489     0.77300
C24         C  0.87534520  0.00420233  0.75459502    -0.02300
Zn25       Zn  0.75235938  0.27143573  0.71148172     1.49700
Zn26       Zn  0.77413059  0.24227677  0.76896243     1.49400
Zn27       Zn  0.71719768  0.27356518  0.76476148     1.49100
Zn28       Zn  0.72211105  0.21664374  0.73592516     1.49500
O29         O  0.74196925  0.25069009  0.74494952    -1.84000
O30         O  0.79375771  0.27178265  0.71019231    -0.74600
O31         O  0.77214522  0.26254496  0.80652853    -0.74400
O32         O  0.70994071  0.30868651  0.74646508    -0.73900
O33         O  0.80925291  0.25151573  0.74824835    -0.74600
O34         O  0.73571049  0.31125044  0.70928892    -0.74200
O35         O  0.73148867  0.28238326  0.80137375    -0.74800
O36         O  0.68245637  0.21527034  0.75093777    -0.74200
O37         O  0.77783529  0.20082149  0.77454466    -0.75000
O38         O  0.68080298  0.25707703  0.76915261    -0.74300
O39         O  0.74412367  0.18384264  0.74868188    -0.74800
O40         O  0.72206142  0.21209056  0.69506736    -0.74700
O41         O  0.74187122  0.24927506  0.67724142    -0.74500
C42         C  0.81348983  0.26230459  0.72475425     0.77300
C43         C  0.75276084  0.27770965  0.81572745     0.77800
C44         C  0.71788812  0.32168242  0.72544351     0.76700
C45         C  0.66939800  0.23441672  0.76324193     0.77100
C46         C  0.76564310  0.18048662  0.76324508     0.78200
C47         C  0.73118491  0.22540931  0.67450039     0.77300
C48         C  0.62608202  0.50654515  0.74317553    -0.02300
C49         C  0.74373766  0.63354246  0.51078926    -0.02300
Zn50       Zn  0.74852124  0.73310492  0.22005582     1.49700
Zn51       Zn  0.77845558  0.72637459  0.27558494     1.49400
Zn52       Zn  0.78157932  0.78446847  0.24637866     1.49100
Zn53       Zn  0.72487297  0.76227939  0.27630979     1.49500
O54         O  0.75793136  0.75214384  0.25442168    -1.84000
O55         O  0.76376336  0.69361993  0.21673256    -0.74600
O56         O  0.81533086  0.74038608  0.28293989    -0.74400
O57         O  0.78392111  0.79025846  0.20516607    -0.73900
O58         O  0.78261665  0.69001650  0.25800923    -0.74600
O59         O  0.75972621  0.75576497  0.18740026    -0.74200
O60         O  0.82059213  0.78174553  0.26456345    -0.74800
O61         O  0.72313905  0.80424852  0.27838628    -0.74200
O62         O  0.76142021  0.71861923  0.31105052    -0.75000
O63         O  0.76092304  0.81899839  0.25720198    -0.74300
O64         O  0.72374552  0.74365880  0.31522983    -0.74800
O65         O  0.69026815  0.75216804  0.25437535    -0.74700
O66         O  0.70771318  0.73280515  0.21686132    -0.74500
C67         C  0.77641854  0.67964261  0.23497643     0.77300
C68         C  0.83008832  0.76139021  0.27839585     0.77800
C69         C  0.77273698  0.77832049  0.18464666     0.76700
C70         C  0.73780233  0.82365462  0.26847158     0.77100
C71         C  0.74058820  0.72577804  0.32478559     0.78200
C72         C  0.68728512  0.74162582  0.23052808     0.77300
C73         C  0.74809540  0.88235955  0.00726533    -0.02300
C74         C  0.50892313  0.75474095  0.12513943    -0.02300
C75         C  0.37853715  0.99390472  0.74480110    -0.02300
C76         C  0.75263813  0.37205980  0.00072584    -0.02300
C77         C  0.25639241  0.62210822  0.00092209    -0.02300
C78         C  0.12216450  0.49367090  0.75020679    -0.02300
C79         C  0.74794832  0.11802225  0.49842489    -0.02300
C80         C  0.01010499  0.75141913  0.38233218    -0.02300
Zn81       Zn  0.25183332  0.73093859  0.28418015     1.49700
Zn82       Zn  0.27808715  0.72904131  0.22547838     1.49400
Zn83       Zn  0.22185413  0.75695642  0.22917521     1.49100
Zn84       Zn  0.27785375  0.78584645  0.25417083     1.49500
O85         O  0.25686171  0.75116806  0.24891862    -1.84000
O86         O  0.27106943  0.69198366  0.28512279    -0.74600
O87         O  0.25910065  0.71631869  0.19247839    -0.74400
O88         O  0.19044585  0.74624155  0.25433470    -0.73900
O89         O  0.28922498  0.69595885  0.24396143    -0.74600
O90         O  0.21065518  0.72827561  0.29134220    -0.74200
O91         O  0.21861140  0.73683818  0.19145114    -0.74800
O92         O  0.25516782  0.81763069  0.24004287    -0.74200
O93         O  0.31152663  0.74701520  0.21333411    -0.75000
O94         O  0.21713756  0.79768033  0.22416802    -0.74300
O95         O  0.31632892  0.78644245  0.23543885    -0.74800
O96         O  0.27997356  0.79365477  0.29491249    -0.74700
O97         O  0.26530104  0.75537474  0.31560873    -0.74500
C98         C  0.28606198  0.68241965  0.26584416     0.77300
C99         C  0.23628166  0.72063791  0.18082263     0.77800
C100        C  0.18908526  0.73612347  0.27848233     0.76700
C101        C  0.23097845  0.81917841  0.23011560     0.77100
C102        C  0.32521800  0.76858292  0.21838207     0.78200
C103        C  0.27392197  0.78021266  0.31654847     0.77300
C104        C  0.25132499  0.87339119  0.50005241    -0.02300
C105        C  0.87110507  0.49633504  0.24574718    -0.02300
Zn106      Zn  0.76250953  0.27387252  0.22897264     1.49700
Zn107      Zn  0.72924148  0.27132915  0.28329819     1.49400
Zn108      Zn  0.70972043  0.23704872  0.22772548     1.49100
Zn109      Zn  0.76422799  0.21847056  0.26221334     1.49500
O110        O  0.74088541  0.24979180  0.25095212    -1.84000
O111        O  0.76975899  0.30975306  0.24582678    -0.74600
O112        O  0.68790837  0.27204005  0.28298994    -0.74400
O113        O  0.70983926  0.25408833  0.18826749    -0.73900
O114        O  0.74597537  0.31115672  0.28446659    -0.74600
O115        O  0.74573096  0.28165703  0.19341774    -0.74200
O116        O  0.67406620  0.24643688  0.24753095    -0.74800
O117        O  0.74565117  0.18247284  0.25155731    -0.74200
O118        O  0.73860860  0.24996356  0.31850214    -0.75000
O119        O  0.70978773  0.19517364  0.22603751    -0.74300
O120        O  0.76516929  0.21608804  0.30316492    -0.74800
O121        O  0.80363444  0.22042450  0.24664899    -0.74700
O122        O  0.79842283  0.25813338  0.22142049    -0.74500
C123        C  0.76230214  0.32233453  0.26723854     0.77300
C124        C  0.66889416  0.26020109  0.26924508     0.77800
C125        C  0.72594895  0.27269867  0.17909539     0.76700
C126        C  0.72421510  0.17651925  0.23766944     0.77100
C127        C  0.75288430  0.22827392  0.32273576     0.78200
C128        C  0.81284260  0.23798637  0.22950748     0.77300
C129        C  0.62380614  0.99544225  0.24415011    -0.02300
C130        C  0.49483225  0.24927093  0.86991530    -0.02300
Zn131      Zn  0.27260596  0.21946094  0.76553324     1.49700
Zn132      Zn  0.26647610  0.27603958  0.73536426     1.49400
Zn133      Zn  0.23653357  0.21970181  0.71317069     1.49100
Zn134      Zn  0.21521700  0.24991011  0.76912046     1.49500
O135        O  0.24722101  0.24168023  0.74541226    -1.84000
O136        O  0.30966772  0.23538547  0.76740648    -0.74600
O137        O  0.26700575  0.27885533  0.69411644    -0.74400
O138        O  0.25241061  0.17945322  0.71330810    -0.73900
O139        O  0.30559934  0.27794450  0.75107059    -0.74600
O140        O  0.27542838  0.18110670  0.75257909    -0.74200
O141        O  0.24657557  0.24072110  0.67861510    -0.74800
O142        O  0.17957178  0.23821117  0.75013458    -0.74200
O143        O  0.24514029  0.30971783  0.74844248    -0.75000
O144        O  0.19524178  0.21992081  0.71133599    -0.74300
O145        O  0.21052090  0.29113158  0.77147297    -0.74800
O146        O  0.21992604  0.23476655  0.80864889    -0.74700
O147        O  0.26145834  0.21703288  0.80373954    -0.74500
C148        C  0.31947807  0.25914078  0.76303581     0.77300
C149        C  0.25764487  0.26417517  0.67448896     0.77800
C150        C  0.26716125  0.16779888  0.73178003     0.76700
C151        C  0.17544586  0.22858499  0.72608015     0.77100
C152        C  0.22290654  0.31215272  0.76193754     0.78200
C153        C  0.24113073  0.22290217  0.81872339     0.77300
C154        C  0.99594126  0.25314923  0.62680324    -0.02300
C155        C  0.99286231  0.25422473  0.13238245    -0.02300
Zn156      Zn  0.99420744  0.97076100  0.02301814     1.49700
Zn157      Zn  0.96843745  0.02584778  0.99402200     1.49400
Zn158      Zn  0.02408119  0.02804151  0.02688202     1.49100
Zn159      Zn  0.02388143  0.99816202  0.96986525     1.49500
O160        O  0.00219385  0.00526779  0.00316254    -1.84000
O161        O  0.95268691  0.96525609  0.02258432    -0.74600
O162        O  0.96820331  0.06508886  0.01123000    -0.74400
O163        O  0.02548482  0.01428695  0.06512068    -0.73900
O164        O  0.93495993  0.00363903  0.00481298    -0.74600
O165        O  0.00967218  0.97142585  0.06292562    -0.74200
O166        O  0.01028888  0.06620509  0.02894448    -0.74800
O167        O  0.06224445  0.01565797  0.97118969    -0.74200
O168        O  0.96396180  0.02680586  0.95267993    -0.75000
O169        O  0.06242791  0.03037707  0.01429905    -0.74300
O170        O  0.00274714  0.00936702  0.93588007    -0.74800
O171        O  0.02772094  0.95711211  0.96493486    -0.74700
O172        O  0.00910308  0.93763408  0.00172058    -0.74500
C173        C  0.93204800  0.97931928  0.01428592     0.77300
C174        C  0.98762285  0.07788350  0.02357807     0.77800
C175        C  0.02063138  0.99126148  0.07638426     0.76700
C176        C  0.07463991  0.02630918  0.99172751     0.77100
C177        C  0.97853175  0.01869392  0.93258343     0.78200
C178        C  0.02062483  0.93571498  0.97831054     0.77300
Zn179      Zn  0.27503117  0.25431475  0.23519518     1.49700
Zn180      Zn  0.22203096  0.28250728  0.26460838     1.49400
Zn181      Zn  0.21846025  0.22397260  0.23676592     1.49100
Zn182      Zn  0.24999672  0.22737867  0.29102273     1.49500
O183        O  0.24188026  0.24771774  0.25730365    -1.84000
O184        O  0.28090621  0.29538729  0.23272843    -0.74600
O185        O  0.18290608  0.28114584  0.24819213    -0.74400
O186        O  0.22983515  0.22202233  0.19846273    -0.73900
O187        O  0.24411599  0.31576171  0.25044040    -0.74600
O188        O  0.27215433  0.23831135  0.19593791    -0.74200
O189        O  0.18016306  0.23685970  0.23675719    -0.74800
O190        O  0.23368906  0.18792898  0.29225202    -0.74200
O191        O  0.21975690  0.28809307  0.30604348    -0.75000
O192        O  0.21820247  0.18546089  0.24954026    -0.74300
O193        O  0.23875252  0.25018885  0.32368646    -0.74800
O194        O  0.29082931  0.22506695  0.29458950    -0.74700
O195        O  0.30883668  0.24050887  0.25561527    -0.74500
C196        C  0.26790119  0.31714094  0.23955472     0.77300
C197        C  0.16919980  0.26038689  0.23953374     0.77800
C198        C  0.25131327  0.22688847  0.18474188     0.76700
C199        C  0.22316562  0.17423770  0.27245975     0.77100
C200        C  0.22802612  0.27398410  0.32661164     0.78200
C201        C  0.31156244  0.23113973  0.27994644     0.77300
C202        C  0.12422615  0.99354358  0.25592869    -0.02300
Zn203      Zn  0.97768187  0.02674908  0.52402888     1.49700
Zn204      Zn  0.03537370  0.02206844  0.49683803     1.49400
Zn205      Zn  0.00938680  0.96981173  0.52904944     1.49100
Zn206      Zn  0.98076291  0.99006121  0.47189534     1.49500
O207        O  0.00121329  0.00172252  0.50507083    -1.84000
O208        O  0.99213070  0.06451654  0.52603879    -0.74600
O209        O  0.06927209  0.00005710  0.50904936    -0.74400
O210        O  0.99387551  0.97497324  0.56852176    -0.73900
O211        O  0.03562285  0.06179426  0.51308921    -0.74600
O212        O  0.97296515  0.01505479  0.56206680    -0.74200
O213        O  0.05066554  0.96353168  0.52935287    -0.74800
O214        O  0.98113118  0.94849217  0.47011957    -0.74200
O215        O  0.03888077  0.02293091  0.45546081    -0.75000
O216        O  0.99629640  0.93428833  0.51101633    -0.74300
O217        O  0.00195454  0.00192408  0.43817797    -0.74800
O218        O  0.94086616  0.00470793  0.46991277    -0.74700
O219        O  0.94101499  0.03028833  0.50759685    -0.74500
C220        C  0.01543969  0.07548881  0.52281081     0.77300
C221        C  0.07156435  0.97633314  0.52015915     0.77800
C222        C  0.97972294  0.99522398  0.57762435     0.76700
C223        C  0.98798430  0.92932501  0.48665738     0.77100
C224        C  0.02520308  0.01356270  0.43506602     0.78200
C225        C  0.92893648  0.02117734  0.48643477     0.77300
C226        C  0.25035361  0.13213772  0.00201797    -0.02300
Zn227      Zn  0.50691363  0.96928215  0.97527762     1.49700
Zn228      Zn  0.52728234  0.02418865  0.00963601     1.49400
Zn229      Zn  0.47250483  0.02344929  0.97489293     1.49100
Zn230      Zn  0.47296628  0.99053092  0.02900243     1.49500
O231        O  0.49548582  0.00146144  0.99751594    -1.84000
O232        O  0.54814443  0.96684245  0.97855148    -0.74600
O233        O  0.52686302  0.06347740  0.99292540    -0.74400
O234        O  0.47118470  0.00996337  0.93736186    -0.73900
O235        O  0.56291141  0.00466616  0.99986761    -0.74600
O236        O  0.49488919  0.97132460  0.93393037    -0.74200
O237        O  0.48717429  0.06050154  0.97055716    -0.74800
O238        O  0.43340275  0.00598308  0.02836451    -0.74200
O239        O  0.52921081  0.02435326  0.05126923    -0.75000
O240        O  0.43440125  0.02611628  0.98757929    -0.74300
O241        O  0.49284349  0.99968341  0.06404522    -0.74800
O242        O  0.47303454  0.94948656  0.03130743    -0.74700
O243        O  0.49474437  0.93381380  0.99419859    -0.74500
C244        C  0.56744766  0.98113197  0.98916450     0.77300
C245        C  0.50858986  0.07375972  0.97707402     0.77800
C246        C  0.48043174  0.99041755  0.92294200     0.76700
C247        C  0.42150271  0.01918135  0.00900405     0.77100
C248        C  0.51521580  0.01201503  0.06958339     0.78200
C249        C  0.48335226  0.92989911  0.01740655     0.77300
Zn250      Zn  0.52665567  0.01602104  0.47733294     1.49700
Zn251      Zn  0.46909122  0.01066586  0.50324423     1.49400
Zn252      Zn  0.49733358  0.95778099  0.47249991     1.49100
Zn253      Zn  0.52302220  0.98051298  0.52952101     1.49500
O254        O  0.50344709  0.99069427  0.49589478    -1.84000
O255        O  0.51348531  0.05477866  0.47731887    -0.74600
O256        O  0.43662445  0.98924404  0.48789574    -0.74400
O257        O  0.51379332  0.96286879  0.43346912    -0.73900
O258        O  0.46951532  0.05065964  0.48818282    -0.74600
O259        O  0.52996843  0.00512761  0.43926327    -0.74200
O260        O  0.45623480  0.95174622  0.47015880    -0.74800
O261        O  0.52251069  0.93947559  0.53269901    -0.74200
O262        O  0.46301792  0.01012015  0.54449452    -0.75000
O263        O  0.51052028  0.92245819  0.49191702    -0.74300
O264        O  0.50148327  0.99249370  0.56239705    -0.74800
O265        O  0.56268837  0.99468115  0.53141603    -0.74700
O266        O  0.56433936  0.01626731  0.49136460    -0.74500
C267        C  0.48974452  0.06514369  0.47982852     0.77300
C268        C  0.43495757  0.96529732  0.47723023     0.77800
C269        C  0.52564805  0.98440626  0.42407412     0.76700
C270        C  0.51726692  0.91915370  0.51705817     0.77100
C271        C  0.47731927  0.00207130  0.56498362     0.78200
C272        C  0.57580219  0.00812443  0.51322601     0.77300
C273        C  0.49345309  0.24553900  0.37736897    -0.02300
Zn274      Zn  0.98102844  0.47823202  0.02530612     1.49700
Zn275      Zn  0.98148688  0.50693131  0.96786962     1.49400
Zn276      Zn  0.01034360  0.53505593  0.02241698     1.49100
Zn277      Zn  0.03702026  0.47908067  0.99538041     1.49500
O278        O  0.00298841  0.50042725  0.00213900    -1.84000
O279        O  0.94785387  0.46622679  0.00705911    -0.74600
O280        O  0.97957889  0.54852971  0.96159790    -0.74400
O281        O  0.99319171  0.53549506  0.06188230    -0.73900
O282        O  0.94285707  0.48765882  0.96738956    -0.74600
O283        O  0.96945088  0.49670618  0.05855094    -0.74200
O284        O  0.99670223  0.56785216  0.99959270    -0.74800
O285        O  0.07031916  0.50200667  0.00679668    -0.74200
O286        O  0.00361405  0.49290899  0.93542828    -0.75000
O287        O  0.05175768  0.54057689  0.02335431    -0.74300
O288        O  0.04116560  0.47473912  0.95440423    -0.74800
O289        O  0.03772346  0.44065026  0.01441295    -0.74700
O290        O  0.99904154  0.44463096  0.03773566    -0.74500
C291        C  0.93413183  0.47069087  0.98544391     0.77300
C292        C  0.98677754  0.56978040  0.97535953     0.77800
C293        C  0.97604929  0.51815374  0.07167618     0.76700
C294        C  0.07268518  0.52650077  0.01609827     0.77100
C295        C  0.02718760  0.48165186  0.93328575     0.78200
C296        C  0.02043899  0.43128651  0.03168311     0.77300
Zn297      Zn  0.53286372  0.47847599  0.97849247     1.49700
Zn298      Zn  0.52563033  0.50812886  0.03521939     1.49400
Zn299      Zn  0.50272990  0.53638198  0.97872475     1.49100
Zn300      Zn  0.47375770  0.48051286  0.00263705     1.49500
O301        O  0.50838951  0.50132456  0.99904636    -1.84000
O302        O  0.56775226  0.47240161  0.99750770    -0.74600
O303        O  0.52598217  0.54916846  0.04223179    -0.74400
O304        O  0.52150034  0.53619573  0.93992171    -0.73900
O305        O  0.56485411  0.49210232  0.03848103    -0.74600
O306        O  0.54157513  0.49529734  0.94299218    -0.74200
O307        O  0.51517372  0.56915881  0.00248631    -0.74800
O308        O  0.44171540  0.50347698  0.98893007    -0.74200
O309        O  0.50169530  0.49256727  0.06549061    -0.75000
O310        O  0.46156152  0.54265019  0.97575043    -0.74300
O311        O  0.46552213  0.47575572  0.04303537    -0.74800
O312        O  0.47484472  0.44230609  0.98386458    -0.74700
O313        O  0.51847639  0.44093579  0.97126015    -0.74500
C314        C  0.57794197  0.47792263  0.02078170     0.77300
C315        C  0.52157200  0.57074727  0.02792081     0.77800
C316        C  0.53675587  0.51729232  0.92973876     0.76700
C317        C  0.44013844  0.52844644  0.98090516     0.77100
C318        C  0.47785489  0.48173246  0.06539434     0.78200
C319        C  0.49521543  0.42950773  0.97343757     0.77300
Zn320      Zn  0.95556585  0.48201477  0.49261654     1.49700
Zn321      Zn  0.00960438  0.47367872  0.52404102     1.49400
Zn322      Zn  0.01421568  0.50671180  0.46959104     1.49100
Zn323      Zn  0.98594069  0.53357979  0.52476011     1.49500
O324        O  0.99078421  0.49972500  0.50211425    -1.84000
O325        O  0.95147218  0.44193346  0.50838602    -0.74600
O326        O  0.04713333  0.46840950  0.51271427    -0.74400
O327        O  0.99223534  0.49786442  0.43434978    -0.73900
O328        O  0.99282319  0.43739229  0.52687984    -0.74600
O329        O  0.95240882  0.48276018  0.45101050    -0.74200
O330        O  0.05347179  0.48865111  0.47271660    -0.74800
O331        O  0.00270818  0.56651338  0.50487570    -0.74200
O332        O  0.01317973  0.48632191  0.56134528    -0.75000
O333        O  0.01974469  0.54765339  0.46698869    -0.74300
O334        O  0.00134625  0.53001466  0.56490777    -0.74800
O335        O  0.94528406  0.54219298  0.52557202    -0.74700
O336        O  0.92413985  0.50636523  0.50611129    -0.74500
C337        C  0.96939702  0.42770459  0.52142916     0.77300
C338        C  0.06271414  0.47466360  0.49305271     0.77800
C339        C  0.96740267  0.48995081  0.43075147     0.76700
C340        C  0.01414730  0.56878940  0.48145279     0.77100
C341        C  0.01110210  0.50798140  0.57554911     0.78200
C342        C  0.92345461  0.53008178  0.51748245     0.77300
C343        C  0.24463375  0.38004184  0.50381721    -0.02300
Zn344      Zn  0.50477316  0.53155547  0.47462323     1.49700
Zn345      Zn  0.48005840  0.50024610  0.52873895     1.49400
Zn346      Zn  0.48162246  0.47138245  0.47207042     1.49100
Zn347      Zn  0.53740065  0.47836376  0.50081397     1.49500
O348        O  0.50145895  0.49597727  0.49452906    -1.84000
O349        O  0.48889702  0.56241714  0.49787994    -0.74600
O350        O  0.44157589  0.48181443  0.52754832    -0.74400
O351        O  0.47270139  0.48805993  0.43740787    -0.73900
O352        O  0.47574905  0.54091641  0.53595549    -0.74600
O353        O  0.48692882  0.53122506  0.43547679    -0.74200
O354        O  0.44620874  0.46167214  0.48725430    -0.74800
O355        O  0.54126612  0.43915436  0.48354940    -0.74200
O356        O  0.50281499  0.48728470  0.56122658    -0.75000
O357        O  0.50039316  0.43711702  0.46364396    -0.74300
O358        O  0.54273356  0.47652079  0.54171787    -0.74800
O359        O  0.56776579  0.50432299  0.48835981    -0.74700
O360        O  0.54507002  0.54153557  0.47365560    -0.74500
C361        C  0.48023642  0.56301042  0.52254844     0.77300
C362        C  0.43191853  0.46689999  0.50819922     0.77800
C363        C  0.47437978  0.51072065  0.42478199     0.76700
C364        C  0.52346208  0.42647278  0.46895372     0.77100
C365        C  0.52815289  0.48083666  0.56297560     0.78200
C366        C  0.56736632  0.52930443  0.48012009     0.77300
C367        C  0.37480579  0.49565528  0.24379628    -0.02300
C368        C  0.00709965  0.75357632  0.87895362    -0.02300
Zn369      Zn  0.28922360  0.75310786  0.76988558     1.49700
Zn370      Zn  0.23321316  0.77610574  0.73946247     1.49400
Zn371      Zn  0.26182282  0.72066090  0.71575323     1.49100
Zn372      Zn  0.23335048  0.72297431  0.77386608     1.49500
O373        O  0.25513296  0.74348865  0.74919621    -1.84000
O374        O  0.29221655  0.79505806  0.77195134    -0.74600
O375        O  0.23198670  0.77996851  0.69855013    -0.74400
O376        O  0.30310138  0.71774749  0.71174980    -0.73900
O377        O  0.25458528  0.80978175  0.75019464    -0.74600
O378        O  0.32179784  0.74062398  0.74696027    -0.74200
O379        O  0.25071695  0.74215958  0.68083347    -0.74800
O380        O  0.22312068  0.68807647  0.75756047    -0.74200
O381        O  0.19434216  0.77746291  0.75690364    -0.75000
O382        O  0.24300376  0.68158551  0.71745366    -0.74300
O383        O  0.19933826  0.74173318  0.78474929    -0.74800
O384        O  0.25271667  0.71276204  0.80760226    -0.74700
O385        O  0.29218717  0.73515575  0.80887548    -0.74500
C386        C  0.27747351  0.81446998  0.76200406     0.77300
C387        C  0.24051716  0.76627269  0.67798353     0.77800
C388        C  0.32399793  0.72752318  0.72434445     0.76700
C389        C  0.22763995  0.67297755  0.73689948     0.77100
C390        C  0.18547689  0.76214390  0.77623990     0.78200
C391        C  0.27509032  0.71840878  0.81960229     0.77300
C392        C  0.50434918  0.74196689  0.62461907    -0.02300
C393        C  0.45123535  0.72868296  0.71296620    -0.17700
C394        C  0.42613228  0.72601171  0.72669562    -0.19800
C395        C  0.40121693  0.72715786  0.71212573     0.20800
C396        C  0.40173140  0.73074031  0.68337910    -0.02800
C397        C  0.42700930  0.73392648  0.66963542    -0.05800
C398        C  0.45191227  0.73292838  0.68444811     0.21100
C399        C  0.42728433  0.73800357  0.64103437     0.19200
C400        C  0.40250924  0.73878201  0.62631769    -0.17300
C401        C  0.37754405  0.73548168  0.63984543    -0.19500
C402        C  0.37695334  0.73144125  0.66832186     0.20700
C403        C  0.35192861  0.72865982  0.68199203    -0.32500
C404        C  0.35104741  0.72608129  0.71069166     0.01400
C405        C  0.37580046  0.72527664  0.72571322    -0.23900
C406        C  0.47699131  0.73599242  0.67049950    -0.28500
C407        C  0.47756026  0.74064045  0.64179344     0.07100
C408        C  0.45227382  0.74110977  0.62747393    -0.27100
H409        H  0.47013296  0.72770540  0.72471926     0.11800
H410        H  0.42621078  0.72312146  0.74873611     0.12900
H411        H  0.40243824  0.74193711  0.60430737     0.12000
H412        H  0.35866629  0.73623077  0.62803787     0.11300
H413        H  0.33295319  0.72983556  0.67033598     0.16700
H414        H  0.37523249  0.72344782  0.74786768     0.12600
H415        H  0.49584296  0.73393570  0.68208839     0.15400
H416        H  0.45220715  0.74385210  0.60539506     0.15200
C417        C  0.08381087  0.77243641  0.77596082    -0.17700
C418        C  0.05883247  0.76925135  0.78990893    -0.19800
C419        C  0.05844582  0.76311568  0.81811303     0.20800
C420        C  0.08357649  0.76067923  0.83237995    -0.02800
C421        C  0.10872650  0.76404659  0.81839213    -0.05800
C422        C  0.10895651  0.76968562  0.78993786     0.21100
C423        C  0.13367321  0.76120693  0.83287244     0.19200
C424        C  0.13345110  0.75559705  0.86108081    -0.17300
C425        C  0.10864588  0.75248817  0.87488839    -0.19500
C426        C  0.08367888  0.75484065  0.86068751     0.20700
C427        C  0.05887939  0.75169217  0.87454582    -0.32500
C428        C  0.03334257  0.75386434  0.86086313     0.01400
C429        C  0.03348026  0.75971775  0.83235346    -0.23900
C430        C  0.13428676  0.77142219  0.77596919    -0.28500
C431        C  0.15910378  0.76723755  0.79030774     0.07100
C432        C  0.15849834  0.76298118  0.81880810    -0.27100
H433        H  0.08344755  0.77678257  0.75416135     0.11800
H434        H  0.03978708  0.77138979  0.77855818     0.12900
H435        H  0.15249234  0.75333613  0.87242854     0.12000
H436        H  0.10899375  0.74806667  0.89668087     0.11300
H437        H  0.05926828  0.74790675  0.89647671     0.16700
H438        H  0.01442349  0.76278556  0.82133163     0.12600
H439        H  0.13462426  0.77433942  0.75392850     0.15400
H440        H  0.17757526  0.75976620  0.82992564     0.15200
C441        C  0.48366386  0.66507467  0.52202447    -0.17700
C442        C  0.48849788  0.68984383  0.53598188    -0.19800
C443        C  0.49277708  0.68998780  0.56451108     0.20800
C444        C  0.49155247  0.66498744  0.57914091    -0.02800
C445        C  0.48589761  0.64008368  0.56517791    -0.05800
C446        C  0.48248159  0.64003999  0.53640103     0.21100
C447        C  0.48418538  0.61517927  0.57997927     0.19200
C448        C  0.48789936  0.61537248  0.60854633    -0.17300
C449        C  0.49383943  0.63996456  0.62228279    -0.19500
C450        C  0.49588882  0.66482558  0.60772713     0.20700
C451        C  0.50181109  0.68952821  0.62139868    -0.32500
C452        C  0.50278817  0.71502373  0.60730756     0.01400
C453        C  0.49773897  0.71476223  0.57862947    -0.23900
C454        C  0.47887478  0.61489961  0.52247336    -0.28500
C455        C  0.47819349  0.58984225  0.53704016     0.07100
C456        C  0.47985781  0.59036508  0.56589619    -0.27100
H457        H  0.48098150  0.66549204  0.49995045     0.11800
H458        H  0.48924332  0.70887618  0.52438417     0.12900
H459        H  0.48665619  0.59641637  0.62022470     0.12000
H460        H  0.49688117  0.63952727  0.64431377     0.11300
H461        H  0.50471752  0.68919375  0.64346203     0.16700
H462        H  0.49633787  0.73369149  0.56708981     0.12600
H463        H  0.47757193  0.61474922  0.50026642     0.15400
H464        H  0.47959315  0.57122775  0.57737236     0.15200
C465        C  0.40476387  0.46950950  0.36584024    -0.17700
C466        C  0.39208233  0.46587595  0.34046193    -0.19800
C467        C  0.39959505  0.48228380  0.31807589     0.20800
C468        C  0.42006302  0.50258485  0.32124732    -0.02800
C469        C  0.43316424  0.50607842  0.34689828    -0.05800
C470        C  0.42529421  0.48945929  0.36913650     0.21100
C471        C  0.45395109  0.52615959  0.35034980     0.19200
C472        C  0.46105580  0.54279053  0.32788349    -0.17300
C473        C  0.44757604  0.53971451  0.30252904    -0.19500
C474        C  0.42703370  0.51965333  0.29902326     0.20700
C475        C  0.41295094  0.51667186  0.27393414    -0.32500
C476        C  0.39270976  0.49596831  0.27020425     0.01400
C477        C  0.38634995  0.47901061  0.29284569    -0.23900
C478        C  0.43823073  0.49269853  0.39436557    -0.28500
C479        C  0.45974912  0.51173382  0.39806206     0.07100
C480        C  0.46730276  0.52888695  0.37606425    -0.27100
H481        H  0.39860312  0.45660144  0.38288220     0.11800
H482        H  0.37627740  0.45030767  0.33838449     0.12900
H483        H  0.47691432  0.55829049  0.32995307     0.12000
H484        H  0.45325754  0.55301391  0.28563178     0.11300
H485        H  0.41742826  0.53070878  0.25724845     0.16700
H486        H  0.36995115  0.46406588  0.29169048     0.12600
H487        H  0.43172224  0.47971511  0.41125007     0.15400
H488        H  0.48380595  0.54361160  0.37870802     0.15200
C489        C  0.35895485  0.41743115  0.45903074    -0.17700
C490        C  0.33242337  0.40678535  0.45729591    -0.19800
C491        C  0.31427315  0.40968247  0.47933743     0.20800
C492        C  0.32272493  0.42408530  0.50308156    -0.02800
C493        C  0.34958318  0.43484892  0.50486852    -0.05800
C494        C  0.36771267  0.43123494  0.48279490     0.21100
C495        C  0.35835143  0.44895824  0.52874597     0.19200
C496        C  0.33985510  0.45238093  0.55048727    -0.17300
C497        C  0.31314766  0.44177204  0.54866224    -0.19500
C498        C  0.30447927  0.42744869  0.52510709     0.20700
C499        C  0.27836593  0.41533154  0.52368776    -0.32500
C500        C  0.27080417  0.39814263  0.50134448     0.01400
C501        C  0.28825563  0.39746371  0.47833683    -0.23900
C502        C  0.39435268  0.44147936  0.48470387    -0.28500
C503        C  0.40355765  0.45564548  0.50830316     0.07100
C504        C  0.38536511  0.45935519  0.53034275    -0.27100
H505        H  0.37271954  0.41466763  0.44184411     0.11800
H506        H  0.32627278  0.39583228  0.43889971     0.12900
H507        H  0.34608017  0.46313285  0.56896893     0.12000
H508        H  0.29939352  0.44440680  0.56586813     0.11300
H509        H  0.26475011  0.41708061  0.54113457     0.16700
H510        H  0.28229986  0.38680131  0.45980234     0.12600
H511        H  0.40790121  0.43851029  0.46736996     0.15400
H512        H  0.39212431  0.47031675  0.54852157     0.15200
C513        C  0.15882803  0.41362157  0.54982492    -0.17700
C514        C  0.13296757  0.42579341  0.54718966    -0.19800
C515        C  0.12598317  0.44056619  0.52337720     0.20800
C516        C  0.14551292  0.44428687  0.50258272    -0.02800
C517        C  0.17172112  0.43208955  0.50534089    -0.05800
C518        C  0.17808896  0.41601017  0.52867770     0.21100
C519        C  0.19117479  0.43517342  0.48435397     0.19200
C520        C  0.18467533  0.45128607  0.46125606    -0.17300
C521        C  0.15857938  0.46318125  0.45839240    -0.19500
C522        C  0.13857012  0.45936376  0.47867296     0.20700
C523        C  0.11165161  0.46974251  0.47526985    -0.32500
C524        C  0.09174967  0.46516343  0.49559493     0.01400
C525        C  0.09953591  0.45105611  0.51982117    -0.23900
C526        C  0.20286485  0.40128532  0.52980912    -0.28500
C527        C  0.22083320  0.40111926  0.50717958     0.07100
C528        C  0.21600015  0.42057192  0.48594837    -0.27100
H529        H  0.16341127  0.40156114  0.56799122     0.11800
H530        H  0.11816086  0.42303295  0.56348207     0.12900
H531        H  0.19946849  0.45391594  0.44493852     0.12000
H532        H  0.15386668  0.47486859  0.44002703     0.11300
H533        H  0.10614051  0.48089605  0.45678743     0.16700
H534        H  0.08479431  0.44767199  0.53606426     0.12600
H535        H  0.20720155  0.38915856  0.54788760     0.15400
H536        H  0.23030620  0.42193392  0.46903149     0.15200
C537        C  0.37765382  0.49153511  0.14165076    -0.17700
C538        C  0.39158221  0.48798944  0.11688454    -0.19800
C539        C  0.42001674  0.48343097  0.11674664     0.20800
C540        C  0.43451802  0.48206506  0.14182246    -0.02800
C541        C  0.42038861  0.48554365  0.16686211    -0.05800
C542        C  0.39190142  0.49048956  0.16670699     0.21100
C543        C  0.43476413  0.48412188  0.19197382     0.19200
C544        C  0.46313197  0.47890760  0.19182338    -0.17300
C545        C  0.47723365  0.47594171  0.16700274    -0.19500
C546        C  0.46317886  0.47778701  0.14186095     0.20700
C547        C  0.47731909  0.47628850  0.11678411    -0.32500
C548        C  0.46303413  0.47845693  0.09169908     0.01400
C549        C  0.43428389  0.48115825  0.09193458    -0.23900
C550        C  0.37806313  0.49427442  0.19155209    -0.28500
C551        C  0.39207280  0.49362134  0.21702896     0.07100
C552        C  0.42058428  0.48778274  0.21678594    -0.27100
H553        H  0.35573026  0.49525585  0.14119499     0.11800
H554        H  0.38015194  0.48916234  0.09780116     0.12900
H555        H  0.47451419  0.47753298  0.21092041     0.12000
H556        H  0.49919476  0.47247059  0.16747424     0.11300
H557        H  0.49946462  0.47416696  0.11676890     0.16700
H558        H  0.42312541  0.48315599  0.07273973     0.12600
H559        H  0.35607479  0.49771579  0.19124433     0.15400
H560        H  0.43188973  0.48512164  0.23571003     0.15200
C561        C  0.96311558  0.69427446  0.95185456    -0.17700
C562        C  0.96007814  0.66885224  0.96534885    -0.19800
C563        C  0.97539071  0.64571130  0.95719049     0.20800
C564        C  0.99397702  0.64843167  0.93518712    -0.02800
C565        C  0.99762830  0.67428825  0.92216898    -0.05800
C566        C  0.98197605  0.69729549  0.93030089     0.21100
C567        C  0.01665808  0.67692277  0.90068981     0.19200
C568        C  0.03156857  0.65376633  0.89201694    -0.17300
C569        C  0.02768641  0.62817856  0.90454175    -0.19500
C570        C  0.00898266  0.62530240  0.92612824     0.20700
C571        C  0.00524982  0.59970689  0.93889620    -0.32500
C572        C  0.98742689  0.59684146  0.96126927     0.01400
C573        C  0.97263392  0.61997039  0.97056290    -0.23900
C574        C  0.98528620  0.72274287  0.91658342    -0.28500
C575        C  0.00528878  0.72620004  0.89580129     0.07100
C576        C  0.02030594  0.70247163  0.88781903    -0.27100
H577        H  0.95085441  0.71166361  0.95845892     0.11800
H578        H  0.94559880  0.66725791  0.98207260     0.12900
H579        H  0.04621466  0.65541790  0.87543521     0.12000
H580        H  0.03942505  0.61063343  0.89740293     0.11300
H581        H  0.01696863  0.58201912  0.93198495     0.16700
H582        H  0.95897299  0.61786150  0.98791913     0.12600
H583        H  0.97221696  0.73995535  0.92202014     0.15400
H584        H  0.03418873  0.70317675  0.87059909     0.15200
C585        C  0.51206469  0.37096620  0.38757362    -0.17700
C586        C  0.50310957  0.34642071  0.37560725    -0.19800
C587        C  0.49978625  0.32265353  0.39163624     0.20800
C588        C  0.50535854  0.32353021  0.41996402    -0.02800
C589        C  0.51426888  0.34843255  0.43214346    -0.05800
C590        C  0.51764670  0.37218000  0.41579486     0.21100
C591        C  0.51909287  0.34976958  0.46070068     0.19200
C592        C  0.51530198  0.32596361  0.47665637    -0.17300
C593        C  0.50689955  0.30113065  0.46446673    -0.19500
C594        C  0.50195423  0.29960330  0.43607729     0.20700
C595        C  0.49474086  0.27443005  0.42338729    -0.32500
C596        C  0.49227821  0.27271751  0.39450083     0.01400
C597        C  0.49237949  0.29771974  0.37942572    -0.23900
C598        C  0.52498105  0.39715565  0.42813787    -0.28500
C599        C  0.52818238  0.39914772  0.45672471     0.07100
C600        C  0.52605466  0.37522305  0.47288418    -0.27100
H601        H  0.51434870  0.38908932  0.37479675     0.11800
H602        H  0.49904700  0.34595312  0.35373508     0.12900
H603        H  0.51872156  0.32656995  0.49862403     0.12000
H604        H  0.50443634  0.28304901  0.47725652     0.11300
H605        H  0.49228111  0.25637977  0.43605542     0.16700
H606        H  0.48973214  0.29714098  0.35733071     0.12600
H607        H  0.52574604  0.41574335  0.41578232     0.15400
H608        H  0.52749921  0.37688260  0.49502205     0.15200
C609        C  0.47430533  0.86223654  0.58724045    -0.17700
C610        C  0.47244407  0.83792825  0.60240339    -0.19800
C611        C  0.48990213  0.81566387  0.59676114     0.20800
C612        C  0.50948860  0.81789429  0.57569685    -0.02800
C613        C  0.51118035  0.84239047  0.56009142    -0.05800
C614        C  0.49357702  0.86463316  0.56610741     0.21100
C615        C  0.53067322  0.84479502  0.53880800     0.19200
C616        C  0.54846114  0.82260407  0.53365320    -0.17300
C617        C  0.54712415  0.79850217  0.54954089    -0.19500
C618        C  0.52768935  0.79593653  0.57062037     0.20700
C619        C  0.52612632  0.77189041  0.58672643    -0.32500
C620        C  0.50539072  0.76856238  0.60676628     0.01400
C621        C  0.48808814  0.79136261  0.61207490    -0.23900
C622        C  0.49581892  0.88913208  0.55125570    -0.28500
C623        C  0.51511158  0.89185465  0.53014400     0.07100
C624        C  0.53229579  0.86953010  0.52358169    -0.27100
H625        H  0.46069804  0.87921034  0.59209223     0.11800
H626        H  0.45736163  0.83657009  0.61861755     0.12900
H627        H  0.56362164  0.82399583  0.51752510     0.12000
H628        H  0.56124889  0.78180983  0.54526486     0.11300
H629        H  0.54066228  0.75533830  0.58329841     0.16700
H630        H  0.47355656  0.79087397  0.62876118     0.12600
H631        H  0.48257965  0.90639796  0.55625828     0.15400
H632        H  0.54736550  0.87174910  0.50744921     0.15200
C633        C  0.45328656  0.15208518  0.39595923    -0.17700
C634        C  0.45078495  0.12830238  0.41188996    -0.19800
C635        C  0.46817545  0.12399956  0.43446530     0.20800
C636        C  0.48811633  0.14408560  0.44119455    -0.02800
C637        C  0.49028727  0.16841654  0.42532459    -0.05800
C638        C  0.47291450  0.17221634  0.40259553     0.21100
C639        C  0.51038550  0.18843189  0.43159182     0.19200
C640        C  0.52815532  0.18381883  0.45390452    -0.17300
C641        C  0.52627672  0.15953126  0.46945701    -0.19500
C642        C  0.50648029  0.13941810  0.46312094     0.20700
C643        C  0.50553061  0.11417870  0.47736703    -0.32500
C644        C  0.48604483  0.09386311  0.47033326     0.01400
C645        C  0.46688380  0.09933120  0.44947774    -0.23900
C646        C  0.47527078  0.19605277  0.38673610    -0.28500
C647        C  0.49332108  0.21791570  0.39403857     0.07100
C648        C  0.51223376  0.21265352  0.41553993    -0.27100
H649        H  0.43974611  0.15479465  0.37846751     0.11800
H650        H  0.43555139  0.11304218  0.40625522     0.12900
H651        H  0.54366927  0.19890362  0.45921250     0.12000
H652        H  0.54055045  0.15633048  0.48626141     0.11300
H653        H  0.52069081  0.10978727  0.49312047     0.16700
H654        H  0.45242772  0.08343734  0.44346005     0.12600
H655        H  0.46263893  0.19715756  0.36848482     0.15400
H656        H  0.52796713  0.22772210  0.42020526     0.15200
C657        C  0.32311714  0.08261931  0.05704065    -0.17700
C658        C  0.34645025  0.06580995  0.05832942    -0.19800
C659        C  0.35667990  0.05329199  0.03452275     0.20800
C660        C  0.34251687  0.05690968  0.00938649    -0.02800
C661        C  0.31900965  0.07388920  0.00811072    -0.05800
C662        C  0.30967323  0.08727350  0.03190441     0.21100
C663        C  0.30518231  0.07785683  0.98293309     0.19200
C664        C  0.31457668  0.06434250  0.95933320    -0.17300
C665        C  0.33814033  0.04792078  0.96045764    -0.19500
C666        C  0.35245956  0.04448175  0.98527935     0.20700
C667        C  0.37729117  0.03002444  0.98611151    -0.32500
C668        C  0.39250185  0.02788377  0.01065119     0.01400
C669        C  0.38152765  0.03847715  0.03507114    -0.23900
C670        C  0.28745969  0.10555334  0.03011045    -0.28500
C671        C  0.27477179  0.11166271  0.00456186     0.07100
C672        C  0.28269438  0.09585016  0.98158245    -0.27100
H673        H  0.31600862  0.09256648  0.07560233     0.11800
H674        H  0.35689973  0.06318277  0.07782144     0.12900
H675        H  0.30415232  0.06709301  0.93984077     0.12000
H676        H  0.34549967  0.03837940  0.94178417     0.11300
H677        H  0.38560576  0.02165631  0.96725677     0.16700
H678        H  0.39326430  0.03701863  0.05396145     0.12600
H679        H  0.28009797  0.11472044  0.04891003     0.15400
H680        H  0.27191506  0.09845460  0.96225429     0.15200
C681        C  0.10915132  0.00689012  0.38076120    -0.17700
C682        C  0.12253506  0.00032528  0.35639774    -0.19800
C683        C  0.10744793  0.99584504  0.33224875     0.20800
C684        C  0.07865258  0.99768897  0.33253264    -0.02800
C685        C  0.06503543  0.00352923  0.35739246    -0.05800
C686        C  0.08044808  0.00844335  0.38147885     0.21100
C687        C  0.03611654  0.00426298  0.35820851     0.19200
C688        C  0.02116057  0.99970502  0.33389734    -0.17300
C689        C  0.03474449  0.99481084  0.30901163    -0.19500
C690        C  0.06354909  0.99388270  0.30802323     0.20700
C691        C  0.07755141  0.99027050  0.28294668    -0.32500
C692        C  0.10656523  0.99062040  0.28226921     0.01400
C693        C  0.12092220  0.99093374  0.30759331    -0.23900
C694        C  0.06697970  0.01399127  0.40612638    -0.28500
C695        C  0.03819136  0.01348055  0.40759405     0.07100
C696        C  0.02280838  0.00886835  0.38343220    -0.27100
H697        H  0.12124920  0.01047590  0.39912201     0.11800
H698        H  0.14474644  0.99924031  0.35633220     0.12900
H699        H  0.99893665  0.00012811  0.33408233     0.12000
H700        H  0.02270181  0.99187271  0.29050817     0.11300
H701        H  0.06576581  0.98812954  0.26424763     0.16700
H702        H  0.14317475  0.99048349  0.30763221     0.12600
H703        H  0.07907407  0.01703549  0.42460497     0.15400
H704        H  0.00060143  0.00827649  0.38438256     0.15200
C705        C  0.36894356  0.39382897  0.23570713    -0.17700
C706        C  0.35428146  0.36920100  0.23370600    -0.19800
C707        C  0.32551790  0.36932359  0.23463541     0.20800
C708        C  0.31133620  0.39454776  0.23700001    -0.02800
C709        C  0.32620637  0.41955414  0.23843020    -0.05800
C710        C  0.35508155  0.41902983  0.23824763     0.21100
C711        C  0.31223987  0.44495858  0.24023944     0.19200
C712        C  0.28339724  0.44499619  0.24083589    -0.17300
C713        C  0.26865177  0.42014257  0.24020102    -0.19500
C714        C  0.28240786  0.39473519  0.23839313     0.20700
C715        C  0.26791501  0.36952419  0.23849227    -0.32500
C716        C  0.28205795  0.34421063  0.23651964     0.01400
C717        C  0.31083747  0.34453800  0.23395848    -0.23900
C718        C  0.36975380  0.44362570  0.24076270    -0.28500
C719        C  0.35639083  0.46946224  0.24249421     0.07100
C720        C  0.32731823  0.46977410  0.24147936    -0.27100
H721        H  0.39116569  0.39315326  0.23534037     0.11800
H722        H  0.36547459  0.34998832  0.23189078     0.12900
H723        H  0.27222130  0.46425170  0.24221744     0.12000
H724        H  0.24645822  0.42080384  0.24118357     0.11300
H725        H  0.24577242  0.36958750  0.24044143     0.16700
H726        H  0.32209112  0.32530254  0.23267150     0.12600
H727        H  0.39197901  0.44278238  0.24124790     0.15400
H728        H  0.31617520  0.48901994  0.24151612     0.15200
C729        C  0.19024245  0.35251899  0.41966993    -0.17700
C730        C  0.18832410  0.33853391  0.39462667    -0.19800
C731        C  0.20852308  0.31941017  0.38704521     0.20800
C732        C  0.23071625  0.31418630  0.40507831    -0.02800
C733        C  0.23312584  0.32903265  0.42992074    -0.05800
C734        C  0.21278314  0.34818682  0.43723296     0.21100
C735        C  0.25592544  0.32478852  0.44733576     0.19200
C736        C  0.27563284  0.30494806  0.44026138    -0.17300
C737        C  0.27299177  0.28981377  0.41593728    -0.19500
C738        C  0.25078260  0.29450672  0.39807986     0.20700
C739        C  0.24867436  0.28037107  0.37305402    -0.32500
C740        C  0.22732690  0.28632338  0.35440039     0.01400
C741        C  0.20722057  0.30579392  0.36159668    -0.23900
C742        C  0.21543400  0.36307859  0.46172146    -0.28500
C743        C  0.23955083  0.36139127  0.47812653     0.07100
C744        C  0.25898235  0.34088150  0.47114161    -0.27100
H745        H  0.17440877  0.36724442  0.42499914     0.11800
H746        H  0.17107227  0.34272925  0.38116080     0.12900
H747        H  0.29323261  0.30129447  0.45342887     0.12000
H748        H  0.28860161  0.27476724  0.41085139     0.11300
H749        H  0.26446489  0.26566658  0.36748593     0.16700
H750        H  0.19073208  0.31045149  0.34732519     0.12600
H751        H  0.19837103  0.37597291  0.46745740     0.15400
H752        H  0.27700014  0.33806382  0.48395790     0.15200
C753        C  0.39236896  0.23955253  0.37687270    -0.17700
C754        C  0.36738977  0.23472862  0.36366539    -0.19800
C755        C  0.36610684  0.23327125  0.33496336     0.20800
C756        C  0.39018862  0.23657763  0.31936510    -0.02800
C757        C  0.41553295  0.24105936  0.33277552    -0.05800
C758        C  0.41647400  0.24266531  0.36158851     0.21100
C759        C  0.43981975  0.24409904  0.31741127     0.19200
C760        C  0.43834278  0.24303967  0.28862789    -0.17300
C761        C  0.41310745  0.23899440  0.27527293    -0.19500
C762        C  0.38887567  0.23578655  0.29044334     0.20700
C763        C  0.36327315  0.23260646  0.27730610    -0.32500
C764        C  0.33912327  0.22981030  0.29284814     0.01400
C765        C  0.34095782  0.22943426  0.32166092    -0.23900
C766        C  0.44159839  0.24646538  0.37482196    -0.28500
C767        C  0.46655395  0.24699819  0.36009402     0.07100
C768        C  0.46514417  0.24754738  0.33109161    -0.27100
H769        H  0.39287678  0.24060444  0.39907772     0.11800
H770        H  0.34902314  0.23238066  0.37589723     0.12900
H771        H  0.45673223  0.24527540  0.27642152     0.12000
H772        H  0.41254165  0.23844556  0.25305715     0.11300
H773        H  0.36205576  0.23305124  0.25510135     0.16700
H774        H  0.32252695  0.22766845  0.33391704     0.12600
H775        H  0.44211812  0.24690132  0.39707130     0.15400
H776        H  0.48338181  0.25032047  0.31894213     0.15200
C777        C  0.15645213  0.10791125  0.30706848    -0.17700
C778        C  0.14064539  0.08438009  0.30233410    -0.19800
C779        C  0.14768564  0.06583574  0.28138359     0.20800
C780        C  0.17085781  0.07077824  0.26514732    -0.02800
C781        C  0.18656607  0.09487971  0.26955544    -0.05800
C782        C  0.17926731  0.11356470  0.29060088     0.21100
C783        C  0.20880753  0.10084954  0.25219682     0.19200
C784        C  0.21572625  0.08219092  0.23127007    -0.17300
C785        C  0.20039995  0.05804677  0.22724691    -0.19500
C786        C  0.17769608  0.05221176  0.24390314     0.20700
C787        C  0.16188860  0.02810833  0.23992067    -0.32500
C788        C  0.13991324  0.02166904  0.25765166     0.01400
C789        C  0.13182724  0.04240444  0.27660961    -0.23900
C790        C  0.19382391  0.13835756  0.29371993    -0.28500
C791        C  0.21483191  0.14518730  0.27538460     0.07100
C792        C  0.22267004  0.12607721  0.25510608    -0.27100
H793        H  0.15044580  0.12201810  0.32319721     0.11800
H794        H  0.12289268  0.08065137  0.31512035     0.12900
H795        H  0.23278767  0.08645971  0.21774830     0.12000
H796        H  0.20614575  0.04407964  0.21090957     0.11300
H797        H  0.16732200  0.01380924  0.22375072     0.16700
H798        H  0.11312952  0.04053351  0.28830744     0.12600
H799        H  0.18722224  0.15339122  0.30877891     0.15400
H800        H  0.23853711  0.13161633  0.24058873     0.15200
C801        C  0.29797487  0.20465844  0.09668425    -0.17700
C802        C  0.29718561  0.19212506  0.07077976    -0.19800
C803        C  0.27279574  0.18026073  0.06084895     0.20800
C804        C  0.24882323  0.18172479  0.07676074    -0.02800
C805        C  0.24948091  0.19480112  0.10260871    -0.05800
C806        C  0.27428697  0.20590120  0.11293151     0.21100
C807        C  0.22540645  0.19615062  0.11837476     0.19200
C808        C  0.20083270  0.18506240  0.10814002    -0.17300
C809        C  0.20026756  0.17190361  0.08269634    -0.19500
C810        C  0.22424763  0.16971355  0.06707985     0.20700
C811        C  0.22418488  0.15490949  0.04243207    -0.32500
C812        C  0.24860034  0.15113819  0.02745836     0.01400
C813        C  0.27220150  0.16600277  0.03582591    -0.23900
C814        C  0.27501595  0.21738522  0.13950492    -0.28500
C815        C  0.25113669  0.21794138  0.15562684     0.07100
C816        C  0.22634685  0.20790726  0.14445145    -0.27100
H817        H  0.31718223  0.21311213  0.10412554     0.11800
H818        H  0.31582999  0.19111791  0.05879379     0.12900
H819        H  0.18215007  0.18607601  0.12007412     0.12000
H820        H  0.18119455  0.16293931  0.07549362     0.11300
H821        H  0.20505349  0.14615075  0.03527409     0.16700
H822        H  0.29076600  0.16464998  0.02372184     0.12600
H823        H  0.29416914  0.22511775  0.14784349     0.15400
H824        H  0.20764352  0.20845791  0.15640234     0.15200
C825        C  0.01990525  0.83313808  0.98161475    -0.17700
C826        C  0.01784609  0.80774048  0.96797148    -0.19800
C827        C  0.01669516  0.80659072  0.93917320     0.20800
C828        C  0.01843951  0.83135950  0.92409361    -0.02800
C829        C  0.02127179  0.85690999  0.93781194    -0.05800
C830        C  0.02141356  0.85789624  0.96674530     0.21100
C831        C  0.02331370  0.88151331  0.92252294     0.19200
C832        C  0.02271862  0.88043439  0.89376817    -0.17300
C833        C  0.01943770  0.85525706  0.88026462    -0.19500
C834        C  0.01703759  0.83070826  0.89528091     0.20700
C835        C  0.01291324  0.80561998  0.88184120    -0.32500
C836        C  0.01070724  0.78038348  0.89634239     0.01400
C837        C  0.01364476  0.78121815  0.92525734    -0.23900
C838        C  0.02230161  0.88362196  0.98019232    -0.28500
C839        C  0.02370201  0.90830094  0.96499848     0.07100
C840        C  0.02499197  0.90687404  0.93617268    -0.27100
H841        H  0.02013256  0.83341616  0.00383911     0.11800
H842        H  0.01661199  0.78900930  0.97999648     0.12900
H843        H  0.02426070  0.89913225  0.88171823     0.12000
H844        H  0.01857431  0.85500898  0.85804579     0.11300
H845        H  0.01120200  0.80562602  0.85966215     0.16700
H846        H  0.01378033  0.76246324  0.93716365     0.12600
H847        H  0.02133455  0.88446957  0.00238698     0.15400
H848        H  0.02578910  0.92567599  0.92418075     0.15200
C849        C  0.18473068  0.06374556  0.04106499    -0.17700
C850        C  0.16051325  0.04841611  0.03945497    -0.19800
C851        C  0.14500351  0.04806310  0.01512957     0.20800
C852        C  0.15437257  0.06249345  0.99190473    -0.02800
C853        C  0.17869366  0.07816217  0.99364501    -0.05800
C854        C  0.19370413  0.07908408  0.01843301     0.21100
C855        C  0.18772405  0.09322098  0.97073850     0.19200
C856        C  0.17284030  0.09189921  0.94602454    -0.17300
C857        C  0.14860377  0.07652824  0.94433163    -0.19500
C858        C  0.13896511  0.06204372  0.96725854     0.20700
C859        C  0.11366113  0.04814550  0.96639926    -0.32500
C860        C  0.10349836  0.03526795  0.99006889     0.01400
C861        C  0.11969751  0.03454579  0.01402297    -0.23900
C862        C  0.21698270  0.09589639  0.02044983    -0.28500
C863        C  0.22509653  0.11293702  0.99843951     0.07100
C864        C  0.21114447  0.10979156  0.97302718    -0.27100
H865        H  0.19609542  0.06412170  0.06021897     0.11800
H866        H  0.15361068  0.03729504  0.05742206     0.12900
H867        H  0.17960098  0.10328804  0.92816826     0.12000
H868        H  0.13713149  0.07639540  0.92524106     0.11300
H869        H  0.10112959  0.04889105  0.94798074     0.16700
H870        H  0.11197143  0.02443008  0.03226717     0.12600
H871        H  0.22832906  0.09658756  0.03961267     0.15400
H872        H  0.21831563  0.12005062  0.95472989     0.15200
C873        C  0.03651467  0.03202196  0.16788952    -0.17700
C874        C  0.05185928  0.03309930  0.19231905    -0.19800
C875        C  0.07158600  0.01280850  0.19822773     0.20800
C876        C  0.07550374  0.99112158  0.17930699    -0.02800
C877        C  0.05932657  0.98941086  0.15517523    -0.05800
C878        C  0.04010286  0.01026313  0.14918208     0.21100
C879        C  0.06316209  0.96737492  0.13656132     0.19200
C880        C  0.08332124  0.94749179  0.14210076    -0.17300
C881        C  0.10006775  0.94988688  0.16532685    -0.19500
C882        C  0.09631105  0.97167503  0.18392890     0.20700
C883        C  0.11326501  0.97428542  0.20694993    -0.32500
C884        C  0.10769004  0.99358200  0.22821798     0.01400
C885        C  0.08737179  0.01371327  0.22265196    -0.23900
C886        C  0.02580908  0.00961033  0.12403609    -0.28500
C887        C  0.02993034  0.98797305  0.10515527     0.07100
C888        C  0.04790720  0.96642848  0.11202294    -0.27100
H889        H  0.02187786  0.04828820  0.16358280     0.11800
H890        H  0.04855015  0.05002802  0.20641253     0.12900
H891        H  0.08667786  0.93052207  0.12806005     0.12000
H892        H  0.11589150  0.93456570  0.16884129     0.11300
H893        H  0.13086782  0.96080790  0.20777785     0.16700
H894        H  0.08369582  0.02990773  0.23749527     0.12600
H895        H  0.01227562  0.02651419  0.11859189     0.15400
H896        H  0.05174769  0.95019836  0.09723303     0.15200
C897        C  0.00002255  0.35567471  0.12935563    -0.17700
C898        C  0.00808771  0.37981894  0.11607467    -0.19800
C899        C  0.01340890  0.37968969  0.08781798     0.20800
C900        C  0.01062977  0.35503034  0.07274915    -0.02800
C901        C  0.00262817  0.33057316  0.08624991    -0.05800
C902        C  0.99733899  0.33099247  0.11462129     0.21100
C903        C  0.99994426  0.30576346  0.07141011     0.19200
C904        C  0.00447040  0.30590395  0.04295812    -0.17300
C905        C  0.01203393  0.33025753  0.02946486    -0.19500
C906        C  0.01533682  0.35493813  0.04416608     0.20700
C907        C  0.02196038  0.37977408  0.03070774    -0.32500
C908        C  0.02367255  0.40453511  0.04559544     0.01400
C909        C  0.02015759  0.40410710  0.07418989    -0.23900
C910        C  0.99087628  0.30647757  0.12814402    -0.28500
C911        C  0.99170878  0.28078349  0.11434296     0.07100
C912        C  0.99386235  0.28111470  0.08539865    -0.27100
H913        H  0.99619883  0.35623662  0.15123350     0.11800
H914        H  0.00996822  0.39865424  0.12787238     0.12900
H915        H  0.00243944  0.28709260  0.03115468     0.12000
H916        H  0.01529729  0.32978032  0.00749902     0.11300
H917        H  0.02369874  0.38022291  0.00854692     0.16700
H918        H  0.02074322  0.42332715  0.08555480     0.12600
H919        H  0.98825265  0.30689942  0.15022414     0.15400
H920        H  0.99192796  0.26241562  0.07359185     0.15200
C921        C  0.10375440  0.30315621  0.17664378    -0.17700
C922        C  0.08106999  0.30028698  0.15933413    -0.19800
C923        C  0.06323994  0.27776356  0.16222035     0.20800
C924        C  0.06808978  0.25796538  0.18262293    -0.02800
C925        C  0.09153968  0.26035807  0.19956796    -0.05800
C926        C  0.10939563  0.28314218  0.19659288     0.21100
C927        C  0.09767234  0.23947980  0.21869619     0.19200
C928        C  0.07980682  0.21690892  0.22134045    -0.17300
C929        C  0.05611675  0.21496978  0.20499466    -0.19500
C930        C  0.05009657  0.23533673  0.18539955     0.20700
C931        C  0.02638093  0.23368215  0.16871209    -0.32500
C932        C  0.02024696  0.25448579  0.14927224     0.01400
C933        C  0.04066447  0.27490921  0.14487037    -0.23900
C934        C  0.13343653  0.28469543  0.21241674    -0.28500
C935        C  0.14054959  0.26309917  0.23014109     0.07100
C936        C  0.12226887  0.24088884  0.23373627    -0.27100
H937        H  0.11727623  0.32065467  0.17394917     0.11800
H938        H  0.07737063  0.31580373  0.14375163     0.12900
H939        H  0.08427078  0.20063221  0.23591125     0.12000
H940        H  0.04266346  0.19739393  0.20748772     0.11300
H941        H  0.01228894  0.21661901  0.17129036     0.16700
H942        H  0.03952262  0.28916475  0.12792418     0.12600
H943        H  0.14779065  0.30142567  0.20911041     0.15400
H944        H  0.12792461  0.22402033  0.24722269     0.15200
C945        C  0.94777123  0.16438695  0.10630218    -0.17700
C946        C  0.94536446  0.14135211  0.08923762    -0.19800
C947        C  0.96488238  0.13635541  0.06878150     0.20800
C948        C  0.98694747  0.15496635  0.06542282    -0.02800
C949        C  0.98912846  0.17848784  0.08244439    -0.05800
C950        C  0.96952475  0.18306639  0.10296506     0.21100
C951        C  0.01126197  0.19698362  0.07940926     0.19200
C952        C  0.03116601  0.19162328  0.05936410    -0.17300
C953        C  0.02924602  0.16813144  0.04271689    -0.19500
C954        C  0.00727874  0.14963691  0.04566086     0.20700
C955        C  0.00594509  0.12527680  0.03013073    -0.32500
C956        C  0.98437733  0.10633048  0.03382928     0.01400
C957        C  0.96347788  0.11239784  0.05259888    -0.23900
C958        C  0.97177304  0.20626961  0.11983378    -0.28500
C959        C  0.99225096  0.22671114  0.11557475     0.07100
C960        C  0.01293993  0.22059732  0.09623119    -0.27100
H961        H  0.93249195  0.16767696  0.12205614     0.11800
H962        H  0.92844650  0.12722707  0.09231109     0.12900
H963        H  0.04831390  0.20553618  0.05663865     0.12000
H964        H  0.04509614  0.16430409  0.02767068     0.11300
H965        H  0.02241577  0.12031951  0.01607415     0.16700
H966        H  0.94736028  0.09743651  0.05614028     0.12600
H967        H  0.95712470  0.20791111  0.13630098     0.15400
H968        H  0.02987031  0.23481997  0.09364479     0.15200
C969        C  0.97498891  0.35280216  0.62081252    -0.17700
C970        C  0.96685469  0.37608183  0.60595797    -0.19800
C971        C  0.96708687  0.37581582  0.57717218     0.20800
C972        C  0.97536111  0.35176775  0.56319456    -0.02800
C973        C  0.98322721  0.32806499  0.57826582    -0.05800
C974        C  0.98320085  0.32873734  0.60714844     0.21100
C975        C  0.99147603  0.30389201  0.56447817     0.19200
C976        C  0.99230209  0.30391786  0.53565473    -0.17300
C977        C  0.98512748  0.32761413  0.52071378    -0.19500
C978        C  0.97665759  0.35171341  0.53425126     0.20700
C979        C  0.97103304  0.37619932  0.51958122    -0.32500
C980        C  0.96366800  0.40047322  0.53356890     0.01400
C981        C  0.96079788  0.39972219  0.56224380    -0.23900
C982        C  0.99046685  0.30509104  0.62196819    -0.28500
C983        C  0.99574249  0.27971236  0.60863202     0.07100
C984        C  0.99810102  0.27999995  0.57968227    -0.27100
H985        H  0.97469752  0.35357111  0.64302778     0.11800
H986        H  0.96078281  0.39446162  0.61700743     0.12900
H987        H  0.99856028  0.28559261  0.52462825     0.12000
H988        H  0.98637108  0.32713155  0.49853357     0.11300
H989        H  0.97439774  0.37694702  0.49762490     0.16700
H990        H  0.95625274  0.41865212  0.57317520     0.12600
H991        H  0.98955380  0.30564095  0.64419139     0.15400
H992        H  0.00450600  0.26176443  0.56873854     0.15200
C993        C  0.97329531  0.16668208  0.53288158    -0.17700
C994        C  0.96878419  0.19023038  0.54890596    -0.19800
C995        C  0.98508285  0.19547475  0.57214021     0.20800
C996        C  0.00624716  0.17679972  0.57906775    -0.02800
C997        C  0.01108232  0.15322113  0.56271181    -0.05800
C998        C  0.99430719  0.14800761  0.53968232     0.21100
C999        C  0.03206420  0.13438490  0.56997999     0.19200
C1000       C  0.04791911  0.13929984  0.59355802    -0.17300
C1001       C  0.04284096  0.16239986  0.60993053    -0.19500
C1002       C  0.02208897  0.18122826  0.60279203     0.20700
C1003       C  0.01718310  0.20451135  0.61895239    -0.32500
C1004       C  0.99830236  0.22533521  0.61073985     0.01400
C1005       C  0.98086151  0.21920795  0.58829780    -0.23900
C1006       C  0.99789502  0.12349907  0.52477783    -0.28500
C1007       C  0.01816475  0.10421438  0.53242070     0.07100
C1008       C  0.03578103  0.11021858  0.55447661    -0.27100
H1009       H  0.96014761  0.16292946  0.51529573     0.11800
H1010       H  0.95245374  0.20428815  0.54317627     0.12900
H1011       H  0.06394949  0.12502555  0.59960444     0.12000
H1012       H  0.05527184  0.16562402  0.62813731     0.11300
H1013       H  0.02870006  0.20630789  0.63788159     0.16700
H1014       H  0.96471852  0.23352173  0.58269767     0.12600
H1015       H  0.98383797  0.11856815  0.50818221     0.15400
H1016       H  0.05075069  0.09499637  0.56099992     0.15200
C1017       C  0.09627915  0.24611945  0.62879702    -0.17700
C1018       C  0.12057286  0.23890011  0.64222323    -0.19800
C1019       C  0.12146366  0.23725004  0.67093059     0.20800
C1020       C  0.09771872  0.24307225  0.68631988    -0.02800
C1021       C  0.07289077  0.24961771  0.67264517    -0.05800
C1022       C  0.07234298  0.25121700  0.64383018     0.21100
C1023       C  0.04864636  0.25431220  0.68769206     0.19200
C1024       C  0.04995785  0.25378305  0.71652054    -0.17300
C1025       C  0.07480944  0.24806564  0.73015119    -0.19500
C1026       C  0.09880317  0.24236057  0.71525030     0.20700
C1027       C  0.12394030  0.23645875  0.72860278    -0.32500
C1028       C  0.14772502  0.23052923  0.71323398     0.01400
C1029       C  0.14594154  0.23048492  0.68439672    -0.23900
C1030       C  0.04758144  0.25630125  0.63028682    -0.28500
C1031       C  0.02236613  0.25683142  0.64459539     0.07100
C1032       C  0.02347778  0.25827945  0.67361072    -0.27100
H1033       H  0.09605421  0.24707895  0.60658415     0.11800
H1034       H  0.13871687  0.23471000  0.63013843     0.12900
H1035       H  0.03168165  0.25747164  0.72855138     0.12000
H1036       H  0.07517529  0.24778555  0.75237360     0.11300
H1037       H  0.12509898  0.23693755  0.75080589     0.16700
H1038       H  0.16409519  0.22660022  0.67220451     0.12600
H1039       H  0.04741388  0.25645758  0.60803356     0.15400
H1040       H  0.00510211  0.26173566  0.68540185     0.15200
C1041       C  0.29961447  0.33874518  0.58129986    -0.17700
C1042       C  0.30141283  0.32285449  0.60511474    -0.19800
C1043       C  0.27905060  0.30688715  0.61356990     0.20800
C1044       C  0.25476142  0.30658977  0.59763398    -0.02800
C1045       C  0.25270337  0.32329066  0.57396925    -0.05800
C1046       C  0.27520122  0.33941913  0.56590774     0.21100
C1047       C  0.22818887  0.32394002  0.55848859     0.19200
C1048       C  0.20613490  0.30716762  0.56645542    -0.17300
C1049       C  0.20821770  0.29037306  0.58980490    -0.19500
C1050       C  0.23235614  0.29013797  0.60569102     0.20700
C1051       C  0.23424541  0.27450297  0.62993739    -0.32500
C1052       C  0.25791957  0.27590792  0.64656862     0.01400
C1053       C  0.28031584  0.29185207  0.63807698    -0.23900
C1054       C  0.27297568  0.35635148  0.54284112    -0.28500
C1055       C  0.24777617  0.35960730  0.52846110     0.07100
C1056       C  0.22600019  0.34175514  0.53573316    -0.27100
H1057       H  0.31712561  0.35106227  0.57528566     0.11800
H1058       H  0.32023272  0.32321379  0.61703058     0.12900
H1059       H  0.18714165  0.30728562  0.55482074     0.12000
H1060       H  0.19077610  0.27790208  0.59569042     0.11300
H1061       H  0.21673690  0.26256688  0.63671554     0.16700
H1062       H  0.29850379  0.29301824  0.65092605     0.12600
H1063       H  0.29142469  0.36670776  0.53635837     0.15400
H1064       H  0.20703995  0.34237455  0.52403774     0.15200
C1065       C  0.29594717  0.18191282  0.89301454    -0.17700
C1066       C  0.29795692  0.16986217  0.91895879    -0.19800
C1067       C  0.27526957  0.16970311  0.93653694     0.20800
C1068       C  0.25076015  0.18300166  0.92840560    -0.02800
C1069       C  0.24864940  0.19503700  0.90212969    -0.05800
C1070       C  0.27121750  0.19397248  0.88427921     0.21100
C1071       C  0.22372342  0.20724515  0.89340035     0.19200
C1072       C  0.20159706  0.20845601  0.91169491    -0.17300
C1073       C  0.20381862  0.19680711  0.93791686    -0.19500
C1074       C  0.22811032  0.18351127  0.94617618     0.20700
C1075       C  0.22958972  0.16928139  0.97115786    -0.32500
C1076       C  0.25258581  0.15260305  0.97772900     0.01400
C1077       C  0.27626680  0.15524094  0.96141720    -0.23900
C1078       C  0.26850160  0.20418494  0.85766304    -0.28500
C1079       C  0.24335373  0.21509155  0.84809715     0.07100
C1080       C  0.22118407  0.21722053  0.86634112    -0.27100
H1081       H  0.31352633  0.18115622  0.87949583     0.11800
H1082       H  0.31698424  0.15991617  0.92492743     0.12900
H1083       H  0.18238477  0.21790143  0.90553135     0.12000
H1084       H  0.18621621  0.19740174  0.95140523     0.11300
H1085       H  0.21172633  0.16887109  0.98432536     0.16700
H1086       H  0.29526994  0.14534585  0.96734679     0.12600
H1087       H  0.28602823  0.20284311  0.84410423     0.15400
H1088       H  0.20187579  0.22585693  0.85932379     0.15200
C1089       C  0.53584163  0.33801337  0.95546256    -0.17700
C1090       C  0.53669254  0.31370002  0.93990270    -0.19800
C1091       C  0.51614110  0.30801179  0.92042677     0.20800
C1092       C  0.49436392  0.32693682  0.91702809    -0.02800
C1093       C  0.49317875  0.35120516  0.93305705    -0.05800
C1094       C  0.51426416  0.35697507  0.95205318     0.21100
C1095       C  0.47130927  0.37008109  0.92944518     0.19200
C1096       C  0.45098308  0.36459461  0.90977340    -0.17300
C1097       C  0.45256146  0.34096523  0.89348790    -0.19500
C1098       C  0.47416459  0.32208424  0.89700799     0.20700
C1099       C  0.47568639  0.29844655  0.88074188    -0.32500
C1100       C  0.49556063  0.27749353  0.88558863     0.01400
C1101       C  0.51680130  0.28369179  0.90451335    -0.23900
C1102       C  0.51391095  0.38208368  0.96644174    -0.28500
C1103       C  0.49245105  0.40121952  0.96249472     0.07100
C1104       C  0.47078776  0.39468597  0.94463164    -0.27100
H1105       H  0.55220522  0.34209916  0.97001722     0.11800
H1106       H  0.55356210  0.29945515  0.94295021     0.12900
H1107       H  0.43414403  0.37885408  0.90659928     0.12000
H1108       H  0.43675350  0.33737159  0.87819831     0.11300
H1109       H  0.46094395  0.29696102  0.86424506     0.16700
H1110       H  0.53338504  0.26907335  0.90745177     0.12600
H1111       H  0.53077122  0.38718479  0.98011343     0.15400
H1112       H  0.45455687  0.40959695  0.94114704     0.15200
C1113       C  0.51032797  0.17601813  0.97585567    -0.17700
C1114       C  0.50522543  0.20049335  0.96134226    -0.19800
C1115       C  0.49953320  0.19989874  0.93303570     0.20800
C1116       C  0.49882894  0.17432889  0.91935132    -0.02800
C1117       C  0.50423415  0.14972360  0.93386542    -0.05800
C1118       C  0.50988759  0.15045438  0.96235068     0.21100
C1119       C  0.50353307  0.12432726  0.91987146     0.19200
C1120       C  0.49739763  0.12353532  0.89175967    -0.17300
C1121       C  0.49193940  0.14783477  0.87749365    -0.19500
C1122       C  0.49270286  0.17326709  0.89110529     0.20700
C1123       C  0.48870618  0.19768321  0.87652634    -0.32500
C1124       C  0.49217020  0.22373917  0.88914231     0.01400
C1125       C  0.49544373  0.22441302  0.91804173    -0.23900
C1126       C  0.51385352  0.12554237  0.97683995    -0.28500
C1127       C  0.51213236  0.10025686  0.96288724     0.07100
C1128       C  0.50785837  0.09997157  0.93438101    -0.27100
H1129       H  0.51452162  0.17708831  0.99767479     0.11800
H1130       H  0.50592499  0.21993435  0.97224873     0.12900
H1131       H  0.49662144  0.10408967  0.88084657     0.12000
H1132       H  0.48738315  0.14676016  0.85573802     0.11300
H1133       H  0.48550692  0.19649330  0.85452869     0.16700
H1134       H  0.49581184  0.24364286  0.92908919     0.12600
H1135       H  0.51659060  0.12573267  0.99891726     0.15400
H1136       H  0.50627853  0.08040000  0.92369797     0.15200
C1137       C  0.44517037  0.25264707  0.77816387    -0.17700
C1138       C  0.42086090  0.25675141  0.76318395    -0.19800
C1139       C  0.39570362  0.26003334  0.77674995     0.20800
C1140       C  0.39520500  0.25935212  0.80574770    -0.02800
C1141       C  0.41959818  0.25469465  0.82077023    -0.05800
C1142       C  0.44475602  0.25151840  0.80698744     0.21100
C1143       C  0.41867965  0.25283204  0.84959461     0.19200
C1144       C  0.39364371  0.25601132  0.86328441    -0.17300
C1145       C  0.36958425  0.26098026  0.84850138    -0.19500
C1146       C  0.37017107  0.26252669  0.81979643     0.20700
C1147       C  0.34588217  0.26577633  0.80491096    -0.32500
C1148       C  0.34592668  0.26497356  0.77617508     0.01400
C1149       C  0.37086642  0.26262785  0.76200381    -0.23900
C1150       C  0.46907009  0.24778274  0.82225031    -0.28500
C1151       C  0.46872275  0.24821842  0.85133470     0.07100
C1152       C  0.44288581  0.24867225  0.86443691    -0.27100
H1153       H  0.46431114  0.25029880  0.76718137     0.11800
H1154       H  0.42171747  0.25716971  0.74098088     0.12900
H1155       H  0.39269196  0.25479466  0.88545937     0.12000
H1156       H  0.35043369  0.26320436  0.85950246     0.11300
H1157       H  0.32648049  0.26684848  0.81571968     0.16700
H1158       H  0.37073952  0.26120665  0.73981012     0.12600
H1159       H  0.48794616  0.24495768  0.81113502     0.15400
H1160       H  0.44198169  0.24807759  0.88665971     0.15200
C1161       C  0.55691696  0.94864805  0.30533734    -0.17700
C1162       C  0.54413646  0.94607455  0.33091896    -0.19800
C1163       C  0.54564079  0.96752854  0.35017963     0.20800
C1164       C  0.55972715  0.99202002  0.34317948    -0.02800
C1165       C  0.57282744  0.99448935  0.31754457    -0.05800
C1166       C  0.57161721  0.97262460  0.29867182     0.21100
C1167       C  0.58758201  0.01866403  0.31105532     0.19200
C1168       C  0.58833006  0.04052878  0.32981121    -0.17300
C1169       C  0.57531124  0.03814482  0.35512275    -0.19500
C1170       C  0.56128790  0.01388710  0.36202109     0.20700
C1171       C  0.54927086  0.01107048  0.38772177    -0.32500
C1172       C  0.53587672  0.98650832  0.39549166     0.01400
C1173       C  0.53381948  0.96484042  0.37642586    -0.23900
C1174       C  0.58625514  0.97458799  0.27407254    -0.28500
C1175       C  0.60370770  0.99736053  0.26872786     0.07100
C1176       C  0.60229169  0.02022856  0.28648023    -0.27100
H1177       H  0.55584352  0.93161248  0.29100693     0.11800
H1178       H  0.53337082  0.92717604  0.33575671     0.12900
H1179       H  0.59950731  0.05924041  0.32516467     0.12000
H1180       H  0.57657612  0.05513625  0.36949774     0.11300
H1181       H  0.55099684  0.02814233  0.40196586     0.16700
H1182       H  0.52351829  0.94590972  0.38210259     0.12600
H1183       H  0.58606876  0.95728104  0.26000412     0.15400
H1184       H  0.61301958  0.03910802  0.28182423     0.15200
C1185       C  0.56757066  0.95472917  0.13426058    -0.17700
C1186       C  0.58301009  0.95194588  0.15843559    -0.19800
C1187       C  0.58478511  0.97379476  0.17725072     0.20800
C1188       C  0.57007587  0.99835862  0.17189649    -0.02800
C1189       C  0.55491271  0.00138763  0.14729826    -0.05800
C1190       C  0.55383367  0.97950824  0.12833023     0.21100
C1191       C  0.54141802  0.02656923  0.14139627     0.19200
C1192       C  0.54218630  0.04795451  0.16070978    -0.17300
C1193       C  0.55659981  0.04467187  0.18535443    -0.19500
C1194       C  0.57090352  0.02014128  0.19086426     0.20700
C1195       C  0.58684266  0.01752933  0.21458845    -0.32500
C1196       C  0.60395811  0.99430166  0.21912287     0.01400
C1197       C  0.60156282  0.97182155  0.20085302    -0.23900
C1198       C  0.53961793  0.98309225  0.10349344    -0.28500
C1199       C  0.52718120  0.00847522  0.09707808     0.07100
C1200       C  0.52792313  0.03009686  0.11608266    -0.27100
H1201       H  0.56685702  0.93769028  0.11991317     0.11800
H1202       H  0.59392139  0.93284430  0.16219746     0.12900
H1203       H  0.53184926  0.06731656  0.15665140     0.12000
H1204       H  0.55713631  0.06161374  0.19982687     0.11300
H1205       H  0.58756260  0.03463955  0.22888450     0.16700
H1206       H  0.61268823  0.95291809  0.20462256     0.12600
H1207       H  0.53905304  0.96646693  0.08862021     0.15400
H1208       H  0.51826433  0.04959595  0.11104354     0.15200
C1209       C  0.65959679  0.07691885  0.19146303    -0.17700
C1210       C  0.67284855  0.10243903  0.19077959    -0.19800
C1211       C  0.68755122  0.11189224  0.21370426     0.20800
C1212       C  0.68931832  0.09519816  0.23739664    -0.02800
C1213       C  0.67534319  0.06966718  0.23829387    -0.05800
C1214       C  0.66035765  0.06064476  0.21527687     0.21100
C1215       C  0.67614715  0.05333538  0.26223135     0.19200
C1216       C  0.69165826  0.06238740  0.28485509    -0.17300
C1217       C  0.70573782  0.08758536  0.28391661    -0.19500
C1218       C  0.70448148  0.10429209  0.26037586     0.20700
C1219       C  0.71740238  0.13023769  0.25963722    -0.32500
C1220       C  0.71461196  0.14752606  0.23651860     0.01400
C1221       C  0.69990274  0.13801828  0.21355364    -0.23900
C1222       C  0.64569426  0.03590120  0.21655684    -0.28500
C1223       C  0.64348854  0.02073337  0.24135147     0.07100
C1224       C  0.66071774  0.02878285  0.26341571    -0.27100
H1225       H  0.64812800  0.07023256  0.17357047     0.11800
H1226       H  0.67138237  0.11490336  0.17238518     0.12900
H1227       H  0.69258002  0.05017101  0.30344359     0.12000
H1228       H  0.71725124  0.09422087  0.30179312     0.11300
H1229       H  0.72840975  0.13758000  0.27757590     0.16700
H1230       H  0.69768806  0.15120216  0.19571624     0.12600
H1231       H  0.63562969  0.02901477  0.19798714     0.15400
H1232       H  0.66091620  0.01664308  0.28207978     0.15200
C1233       C  0.55410522  0.21327167  0.29927765    -0.17700
C1234       C  0.57753594  0.21674590  0.28289781    -0.19800
C1235       C  0.59669431  0.23763484  0.28876784     0.20800
C1236       C  0.59196653  0.25526749  0.31124265    -0.02800
C1237       C  0.56860974  0.25148564  0.32790861    -0.05800
C1238       C  0.54943580  0.23048977  0.32198030     0.21100
C1239       C  0.56494498  0.26827670  0.35104306     0.19200
C1240       C  0.58392170  0.28913702  0.35714540    -0.17300
C1241       C  0.60661251  0.29329796  0.34038656    -0.19500
C1242       C  0.61099239  0.27626630  0.31763029     0.20700
C1243       C  0.63480116  0.27913665  0.30204768    -0.32500
C1244       C  0.64064181  0.26077929  0.28057606     0.01400
C1245       C  0.62104716  0.24052491  0.27344998    -0.23900
C1246       C  0.52586704  0.22748025  0.33861897    -0.28500
C1247       C  0.52075839  0.24590689  0.36056375     0.07100
C1248       C  0.54226651  0.26429421  0.36777752    -0.27100
H1249       H  0.53969826  0.19703431  0.29424173     0.11800
H1250       H  0.58078479  0.20292788  0.26576019     0.12900
H1251       H  0.58112227  0.30236691  0.37483157     0.12000
H1252       H  0.62105897  0.30946358  0.34557535     0.11300
H1253       H  0.64960316  0.29483965  0.30769662     0.16700
H1254       H  0.62541300  0.22609062  0.25707222     0.12600
H1255       H  0.51101406  0.21155401  0.33388439     0.15400
H1256       H  0.54156558  0.27631099  0.38642715     0.15200
C1257       C  0.89174626  0.25478750  0.13425380    -0.17700
C1258       C  0.86689576  0.24961214  0.14724219    -0.19800
C1259       C  0.86625224  0.24437685  0.17549062     0.20800
C1260       C  0.89072251  0.24472715  0.19101790    -0.02800
C1261       C  0.91590485  0.24993980  0.17781351    -0.05800
C1262       C  0.91628547  0.25472035  0.14932944     0.21100
C1263       C  0.94061464  0.25016509  0.19296939     0.19200
C1264       C  0.93968268  0.24586556  0.22149435    -0.17300
C1265       C  0.91460348  0.24087400  0.23469606    -0.19500
C1266       C  0.88996047  0.24003626  0.21962983     0.20700
C1267       C  0.86448226  0.23543723  0.23256308    -0.32500
C1268       C  0.84011556  0.23564230  0.21695825     0.01400
C1269       C  0.84134632  0.23957952  0.18849729    -0.23900
C1270       C  0.94124001  0.25818400  0.13600436    -0.28500
C1271       C  0.96650321  0.25596740  0.15020870     0.07100
C1272       C  0.96577279  0.25382581  0.17920741    -0.27100
H1273       H  0.89181476  0.25846937  0.11232386     0.11800
H1274       H  0.84816472  0.24965560  0.13517502     0.12900
H1275       H  0.95840014  0.24603747  0.23356793     0.12000
H1276       H  0.91450364  0.23757613  0.25667822     0.11300
H1277       H  0.86345536  0.23319862  0.25465957     0.16700
H1278       H  0.82249000  0.24018134  0.17657087     0.12600
H1279       H  0.94119086  0.26046028  0.11386687     0.15400
H1280       H  0.98438755  0.25413318  0.19124287     0.15200
C1281       C  0.87524369  0.47000204  0.34509711    -0.17700
C1282       C  0.88914254  0.46783291  0.37010706    -0.19800
C1283       C  0.91484968  0.48030891  0.37368354     0.20800
C1284       C  0.92638469  0.49567847  0.35203180    -0.02800
C1285       C  0.91220207  0.49793853  0.32668355    -0.05800
C1286       C  0.88683236  0.48464117  0.32319640     0.21100
C1287       C  0.92319031  0.51363343  0.30498535     0.19200
C1288       C  0.94835269  0.52722300  0.30910356    -0.17300
C1289       C  0.96267628  0.52465023  0.33411123    -0.19500
C1290       C  0.95197526  0.50874717  0.35571628     0.20700
C1291       C  0.96607567  0.50595173  0.38101886    -0.32500
C1292       C  0.95461748  0.49054275  0.40278492     0.01400
C1293       C  0.92895768  0.47784765  0.39869021    -0.23900
C1294       C  0.87359634  0.48554349  0.29773585    -0.28500
C1295       C  0.88561884  0.49837359  0.27450563     0.07100
C1296       C  0.90911166  0.51488882  0.27950620    -0.27100
H1297       H  0.85558976  0.45982209  0.34274354     0.11800
H1298       H  0.87986040  0.45619033  0.38660698     0.12900
H1299       H  0.95722529  0.53944957  0.29280278     0.12000
H1300       H  0.98217151  0.53509787  0.33653382     0.11300
H1301       H  0.98551249  0.51638190  0.38400904     0.16700
H1302       H  0.91966293  0.46620977  0.41520125     0.12600
H1303       H  0.85374261  0.47568634  0.29621507     0.15400
H1304       H  0.91705080  0.52790800  0.26334608     0.15200
C1305       C  0.89103116  0.50702884  0.12139118    -0.17700
C1306       C  0.87704374  0.49940843  0.14513084    -0.19800
C1307       C  0.89115720  0.49666972  0.17012004     0.20800
C1308       C  0.91969731  0.50100202  0.17116790    -0.02800
C1309       C  0.93394108  0.50852622  0.14707224    -0.05800
C1310       C  0.91939321  0.51181796  0.12221407     0.21100
C1311       C  0.96266563  0.51241659  0.14775317     0.19200
C1312       C  0.97677549  0.50857175  0.17268584    -0.17300
C1313       C  0.96254619  0.50146619  0.19668738    -0.19500
C1314       C  0.93390279  0.49795739  0.19626526     0.20700
C1315       C  0.91908189  0.49269948  0.22058512    -0.32500
C1316       C  0.89001326  0.49236701  0.22026185     0.01400
C1317       C  0.87682391  0.49138565  0.19431604    -0.23900
C1318       C  0.93354547  0.51867864  0.09828589    -0.28500
C1319       C  0.96223231  0.52154365  0.09835007     0.07100
C1320       C  0.97674212  0.51888594  0.12327138    -0.27100
H1321       H  0.87965312  0.50915432  0.10235574     0.11800
H1322       H  0.85506560  0.49618285  0.14405136     0.12900
H1323       H  0.99883406  0.51116469  0.17366227     0.12000
H1324       H  0.97392348  0.49913860  0.21569265     0.11300
H1325       H  0.93036859  0.48995621  0.23946546     0.16700
H1326       H  0.85465060  0.48983988  0.19330321     0.12600
H1327       H  0.92243434  0.51981543  0.07897173     0.15400
H1328       H  0.99895651  0.51994647  0.12324129     0.15200
C1329       C  0.84732096  0.37380266  0.27448662    -0.17700
C1330       C  0.86286924  0.39699088  0.26770935    -0.19800
C1331       C  0.85004951  0.42098702  0.25795935     0.20800
C1332       C  0.82130871  0.42163582  0.25485395    -0.02800
C1333       C  0.80557505  0.39797209  0.26123889    -0.05800
C1334       C  0.81870502  0.37405462  0.27126525     0.21100
C1335       C  0.77688901  0.39800423  0.25698281     0.19200
C1336       C  0.76425492  0.42193573  0.24666091    -0.17300
C1337       C  0.77978850  0.44563134  0.24101676    -0.19500
C1338       C  0.80835785  0.44579281  0.24518741     0.20700
C1339       C  0.82409242  0.46976790  0.24048614    -0.32500
C1340       C  0.85276677  0.46993082  0.24552135     0.01400
C1341       C  0.86551073  0.44456158  0.25212008    -0.23900
C1342       C  0.80323551  0.35032551  0.27663366    -0.28500
C1343       C  0.77486593  0.34969172  0.27147847     0.07100
C1344       C  0.76168066  0.37373466  0.26195144    -0.27100
H1345       H  0.85773556  0.35552596  0.28195109     0.11800
H1346       H  0.88494529  0.39623920  0.27035417     0.12900
H1347       H  0.74231661  0.42235993  0.24300069     0.12000
H1348       H  0.76941644  0.46387643  0.23342796     0.11300
H1349       H  0.81380305  0.48813709  0.23324936     0.16700
H1350       H  0.88758220  0.44392331  0.25500846     0.12600
H1351       H  0.81361552  0.33153225  0.28285205     0.15400
H1352       H  0.74003602  0.37300412  0.25678503     0.15200
C1353       C  0.25540931  0.86685358  0.60186293    -0.17700
C1354       C  0.25326413  0.85223461  0.62644759    -0.19800
C1355       C  0.24800037  0.82381525  0.62621011     0.20800
C1356       C  0.24508091  0.80988444  0.60100181    -0.02800
C1357       C  0.24679751  0.82481553  0.57610186    -0.05800
C1358       C  0.25205990  0.85336409  0.57662101     0.21100
C1359       C  0.24283687  0.81130530  0.55080116     0.19200
C1360       C  0.23793220  0.78274473  0.55066756    -0.17300
C1361       C  0.23698598  0.76778302  0.57532454    -0.19500
C1362       C  0.24032300  0.78115145  0.60069724     0.20700
C1363       C  0.23886138  0.76648225  0.62573807    -0.32500
C1364       C  0.24105503  0.78053356  0.65096347     0.01400
C1365       C  0.24562354  0.80918606  0.65082263    -0.23900
C1366       C  0.25380255  0.86807831  0.55197161    -0.28500
C1367       C  0.25010849  0.85508626  0.52627265     0.07100
C1368       C  0.24363361  0.82658938  0.52617360    -0.27100
H1369       H  0.25948830  0.88878952  0.60260403     0.11800
H1370       H  0.25572519  0.86317991  0.64568166     0.12900
H1371       H  0.23496449  0.77191689  0.53144671     0.12000
H1372       H  0.23331861  0.74578105  0.57454738     0.11300
H1373       H  0.23561456  0.74439204  0.62562833     0.16700
H1374       H  0.24804132  0.82014248  0.67007913     0.12600
H1375       H  0.25801083  0.88999387  0.55270832     0.15400
H1376       H  0.23871056  0.81617591  0.50718413     0.15200
C1377       C  0.12424607  0.89239285  0.49923084    -0.17700
C1378       C  0.14914181  0.87853492  0.49553418    -0.19800
C1379       C  0.17416625  0.89184788  0.50083878     0.20800
C1380       C  0.17411176  0.91944148  0.50984969    -0.02800
C1381       C  0.14889906  0.93357186  0.51342117    -0.05800
C1382       C  0.12389678  0.91986382  0.50823412     0.21100
C1383       C  0.14870631  0.96136729  0.52206025     0.19200
C1384       C  0.17380498  0.97446828  0.52772855    -0.17300
C1385       C  0.19873860  0.96026727  0.52475521    -0.19500
C1386       C  0.19916850  0.93279224  0.51559098     0.20700
C1387       C  0.22414057  0.91842455  0.51229201    -0.32500
C1388       C  0.22464554  0.89100078  0.50221940     0.01400
C1389       C  0.19915882  0.87790012  0.49740134    -0.23900
C1390       C  0.09896341  0.93388532  0.51183930    -0.28500
C1391       C  0.09845168  0.96178533  0.51973795     0.07100
C1392       C  0.12347165  0.97550629  0.52465737    -0.27100
H1393       H  0.10523016  0.88161660  0.49497866     0.11800
H1394       H  0.14881277  0.85733903  0.48855148     0.12900
H1395       H  0.17416479  0.99571846  0.53453025     0.12000
H1396       H  0.21774262  0.97089813  0.52938357     0.11300
H1397       H  0.24298745  0.92853368  0.51832423     0.16700
H1398       H  0.19886977  0.85651031  0.49099186     0.12600
H1399       H  0.07982942  0.92332182  0.50746721     0.15400
H1400       H  0.12325627  0.99703460  0.53057289     0.15200
C1401       C  0.35277052  0.87661454  0.51321681    -0.17700
C1402       C  0.37844623  0.88804303  0.50761348    -0.19800
C1403       C  0.38045938  0.91305126  0.49334102     0.20800
C1404       C  0.35641978  0.92643183  0.48413059    -0.02800
C1405       C  0.33048985  0.91442417  0.48913014    -0.05800
C1406       C  0.32869225  0.88973088  0.50419264     0.21100
C1407       C  0.30647234  0.92693236  0.47882617     0.19200
C1408       C  0.30857368  0.95178031  0.46416057    -0.17300
C1409       C  0.33417539  0.96439063  0.46031386    -0.19500
C1410       C  0.35827135  0.95192251  0.47025794     0.20700
C1411       C  0.38410038  0.96461389  0.46712929    -0.32500
C1412       C  0.40805206  0.95132088  0.47648792     0.01400
C1413       C  0.40607031  0.92524699  0.48883322    -0.23900
C1414       C  0.30294847  0.87818460  0.50960318    -0.28500
C1415       C  0.27843987  0.89017954  0.49940218     0.07100
C1416       C  0.28089400  0.91414125  0.48295879    -0.27100
H1417       H  0.35175246  0.85743904  0.52455950     0.11800
H1418       H  0.39672800  0.87753901  0.51484598     0.12900
H1419       H  0.29034951  0.96170614  0.45603506     0.12000
H1420       H  0.33513406  0.98384210  0.44945103     0.11300
H1421       H  0.38559315  0.98478263  0.45769576     0.16700
H1422       H  0.42446508  0.91519535  0.49649361     0.12600
H1423       H  0.30227406  0.85886621  0.52068602     0.15400
H1424       H  0.26290454  0.92267736  0.47297932     0.15200
C1425       C  0.23749934  0.85536507  0.37320328    -0.17700
C1426       C  0.23274348  0.86725298  0.39890731    -0.19800
C1427       C  0.24482849  0.85607915  0.42263254     0.20800
C1428       C  0.26209162  0.83288006  0.42035411    -0.02800
C1429       C  0.26657374  0.82057336  0.39444764    -0.05800
C1430       C  0.25423600  0.83193830  0.37078769     0.21100
C1431       C  0.28316093  0.79677022  0.39227478     0.19200
C1432       C  0.29603949  0.78627306  0.41587903    -0.17300
C1433       C  0.29232572  0.79904817  0.44137538    -0.19500
C1434       C  0.27512510  0.82215507  0.44386894     0.20700
C1435       C  0.27100588  0.83484098  0.46941942    -0.32500
C1436       C  0.25253633  0.85719316  0.47255608     0.01400
C1437       C  0.24020670  0.86799364  0.44846883    -0.23900
C1438       C  0.25838402  0.81935151  0.34522533    -0.28500
C1439       C  0.27378605  0.79492391  0.34308320     0.07100
C1440       C  0.28617902  0.78371099  0.36665187    -0.27100
H1441       H  0.22784068  0.86433230  0.35523235     0.11800
H1442       H  0.21957383  0.88520164  0.40022656     0.12900
H1443       H  0.30901327  0.76818022  0.41462568     0.12000
H1444       H  0.30261227  0.79059391  0.45924459     0.11300
H1445       H  0.28248124  0.82733182  0.48695278     0.16700
H1446       H  0.22777203  0.88645419  0.44948753     0.12600
H1447       H  0.24847963  0.82778979  0.32710210     0.15400
H1448       H  0.29799225  0.76484884  0.36501706     0.15200
C1449       C  0.35912413  0.59336411  0.21466175    -0.17700
C1450       C  0.34829287  0.61949482  0.21925759    -0.19800
C1451       C  0.33076739  0.62418025  0.24150442     0.20800
C1452       C  0.32399911  0.60255882  0.25939808    -0.02800
C1453       C  0.33516755  0.57606978  0.25482083    -0.05800
C1454       C  0.35271000  0.57154286  0.23231929     0.21100
C1455       C  0.32913923  0.55431987  0.27286848     0.19200
C1456       C  0.31181443  0.55930433  0.29536548    -0.17300
C1457       C  0.30028510  0.58552962  0.29963757    -0.19500
C1458       C  0.30612038  0.60741568  0.28169883     0.20700
C1459       C  0.29412423  0.63383798  0.28514784    -0.32500
C1460       C  0.30037819  0.65525711  0.26664779     0.01400
C1461       C  0.31956232  0.65016081  0.24563534    -0.23900
C1462       C  0.36423367  0.54553326  0.22803017    -0.28500
C1463       C  0.35851117  0.52317677  0.24566612     0.07100
C1464       C  0.34092914  0.52819075  0.26832584    -0.27100
H1465       H  0.37261331  0.59024738  0.19731654     0.11800
H1466       H  0.35350818  0.63603731  0.20528263     0.12900
H1467       H  0.30704301  0.54285830  0.30959480     0.12000
H1468       H  0.28677872  0.58866508  0.31695296     0.11300
H1469       H  0.27953135  0.63742366  0.30147132     0.16700
H1470       H  0.32528486  0.66638700  0.23147636     0.12600
H1471       H  0.37886525  0.54355758  0.21157289     0.15400
H1472       H  0.33700787  0.51177078  0.28285331     0.15200
C1473       C  0.13031797  0.89359012  0.24131005    -0.17700
C1474       C  0.14494608  0.87033527  0.23307967    -0.19800
C1475       C  0.17369690  0.87076677  0.23268611     0.20800
C1476       C  0.18789339  0.89497699  0.24012660    -0.02800
C1477       C  0.17304342  0.91880325  0.24742933    -0.05800
C1478       C  0.14421343  0.91785584  0.24844139     0.21100
C1479       C  0.18697135  0.94347072  0.25382648     0.19200
C1480       C  0.21580345  0.94359887  0.25418964    -0.17300
C1481       C  0.23060034  0.91962118  0.24793544    -0.19500
C1482       C  0.21683185  0.89522833  0.24071972     0.20700
C1483       C  0.23133065  0.87078282  0.23522371    -0.32500
C1484       C  0.21713509  0.84630099  0.22876536     0.01400
C1485       C  0.18839422  0.84693916  0.22628661    -0.23900
C1486       C  0.12957928  0.94158242  0.25514736    -0.28500
C1487       C  0.14281840  0.96746727  0.25703411     0.07100
C1488       C  0.17181285  0.96769738  0.25875141    -0.27100
H1489       H  0.10810208  0.89275355  0.24162213     0.11800
H1490       H  0.13378123  0.85183690  0.22753808     0.12900
H1491       H  0.22691762  0.96227011  0.25920548     0.12000
H1492       H  0.25281560  0.92018882  0.24864068     0.11300
H1493       H  0.25348809  0.87051182  0.23724250     0.16700
H1494       H  0.17716777  0.82825035  0.22151670     0.12600
H1495       H  0.10733835  0.94070009  0.25533465     0.15400
H1496       H  0.18280792  0.98642608  0.26342053     0.15200
C1497       C  0.13564487  0.73118287  0.36437482    -0.17700
C1498       C  0.11121057  0.73529556  0.37876694    -0.19800
C1499       C  0.08697056  0.74237198  0.36478669     0.20800
C1500       C  0.08730007  0.74525319  0.33606015    -0.02800
C1501       C  0.11210853  0.74153176  0.32151979    -0.05800
C1502       C  0.13635732  0.73438289  0.33576878     0.21100
C1503       C  0.11267771  0.74515592  0.29281157     0.19200
C1504       C  0.08832562  0.75203170  0.27887916    -0.17300
C1505       C  0.06363814  0.75505644  0.29321964    -0.19500
C1506       C  0.06288243  0.75172511  0.32184578     0.20700
C1507       C  0.03807641  0.75432957  0.33633912    -0.32500
C1508       C  0.03728103  0.75171248  0.36530851     0.01400
C1509       C  0.06239297  0.74621075  0.37909647    -0.23900
C1510       C  0.16101899  0.73112415  0.32130553    -0.28500
C1511       C  0.16207362  0.73550122  0.29274788     0.07100
C1512       C  0.13763513  0.74228616  0.27864201    -0.27100
H1513       H  0.15406405  0.72573370  0.37566886     0.11800
H1514       H  0.11125246  0.73281725  0.40086096     0.12900
H1515       H  0.08833957  0.75496267  0.25684324     0.12000
H1516       H  0.04512629  0.76011993  0.28189858     0.11300
H1517       H  0.01961046  0.75789492  0.32459015     0.16700
H1518       H  0.06248928  0.74397642  0.40123303     0.12600
H1519       H  0.17964256  0.72622446  0.33253169     0.15400
H1520       H  0.13810573  0.74585992  0.25669827     0.15200
C1521       C  0.00402682  0.67053971  0.48429702    -0.17700
C1522       C  0.00278812  0.69583352  0.47045234    -0.19800
C1523       C  0.00873567  0.69742454  0.44230492     0.20800
C1524       C  0.01648634  0.67333131  0.42818437    -0.02800
C1525       C  0.01851830  0.64795741  0.44230770    -0.05800
C1526       C  0.01175451  0.64642849  0.47039237     0.21100
C1527       C  0.02666213  0.62400902  0.42811670     0.19200
C1528       C  0.03295158  0.62561159  0.40010071    -0.17300
C1529       C  0.03034151  0.65057743  0.38603912    -0.19500
C1530       C  0.02186643  0.67444992  0.39986582     0.20700
C1531       C  0.01857208  0.69932774  0.38571917    -0.32500
C1532       C  0.01128504  0.72407066  0.39938367     0.01400
C1533       C  0.00700538  0.72265310  0.42812186    -0.23900
C1534       C  0.01190546  0.62070502  0.48375877    -0.28500
C1535       C  0.01896782  0.59652277  0.46939985     0.07100
C1536       C  0.02729483  0.59864754  0.44183056    -0.27100
H1537       H  0.99877513  0.66981762  0.50586092     0.11800
H1538       H  0.99674061  0.71410113  0.48169208     0.12900
H1539       H  0.03927803  0.60740864  0.38890620     0.12000
H1540       H  0.03482452  0.65118259  0.36429205     0.11300
H1541       H  0.02201986  0.69961654  0.36376138     0.16700
H1542       H  0.00223942  0.74082239  0.43988923     0.12600
H1543       H  0.00550886  0.61940047  0.50498775     0.15400
H1544       H  0.03280574  0.58027886  0.43045408     0.15200
C1545       C  0.95165062  0.83738780  0.45932578    -0.17700
C1546       C  0.95511615  0.81272719  0.44468550    -0.19800
C1547       C  0.97991247  0.80705778  0.43115987     0.20800
C1548       C  0.00155730  0.82618061  0.43291183    -0.02800
C1549       C  0.99821712  0.85089352  0.44791879    -0.05800
C1550       C  0.97298631  0.85677900  0.46090174     0.21100
C1551       C  0.01995484  0.87002078  0.44933086     0.19200
C1552       C  0.04478636  0.86432152  0.43607351    -0.17300
C1553       C  0.04790796  0.84009939  0.42095879    -0.19500
C1554       C  0.02636050  0.82101020  0.41909479     0.20700
C1555       C  0.02922126  0.79717897  0.40315225    -0.32500
C1556       C  0.00800109  0.77733592  0.40124465     0.01400
C1557       C  0.98328185  0.78287490  0.41556441    -0.23900
C1558       C  0.96945640  0.88219913  0.47455320    -0.28500
C1559       C  0.99108347  0.90132672  0.47551534     0.07100
C1560       C  0.01628709  0.89489820  0.46330843    -0.27100
H1561       H  0.93217731  0.84140606  0.46919230     0.11800
H1562       H  0.93823682  0.79824600  0.44362415     0.12900
H1563       H  0.06165990  0.87882775  0.43701698     0.12000
H1564       H  0.06716188  0.83638474  0.41054906     0.11300
H1565       H  0.04810392  0.79488352  0.39194615     0.16700
H1566       H  0.96643485  0.76836351  0.41415047     0.12600
H1567       H  0.94994283  0.88732052  0.48384371     0.15400
H1568       H  0.03283738  0.90984212  0.46393682     0.15200
C1569       C  0.71177872  0.21004472  0.41426798    -0.17700
C1570       C  0.70976656  0.19336140  0.43773105    -0.19800
C1571       C  0.72787872  0.17116580  0.44177905     0.20800
C1572       C  0.74794683  0.16566619  0.42173120    -0.02800
C1573       C  0.75017058  0.18259142  0.39823517    -0.05800
C1574       C  0.73201039  0.20493488  0.39441738     0.21100
C1575       C  0.77039545  0.17687355  0.37840534     0.19200
C1576       C  0.78793404  0.15422583  0.38193368    -0.17300
C1577       C  0.78540331  0.13726461  0.40488678    -0.19500
C1578       C  0.76562263  0.14297886  0.42492713     0.20700
C1579       C  0.76375847  0.12658136  0.44834613    -0.32500
C1580       C  0.74639917  0.13376176  0.47051295     0.01400
C1581       C  0.72682526  0.15482849  0.46574681    -0.23900
C1582       C  0.73394749  0.22115801  0.37046683    -0.28500
C1583       C  0.75376933  0.21511920  0.35030241     0.07100
C1584       C  0.77225803  0.19329743  0.35490913    -0.27100
H1585       H  0.69749747  0.22697292  0.41166044     0.11800
H1586       H  0.69414287  0.19794447  0.45280385     0.12900
H1587       H  0.80346207  0.14947585  0.36680369     0.12000
H1588       H  0.79920403  0.11988094  0.40716329     0.11300
H1589       H  0.77656363  0.10839356  0.44918709     0.16700
H1590       H  0.71168668  0.15936784  0.48132725     0.12600
H1591       H  0.71931700  0.23763915  0.36699828     0.15400
H1592       H  0.78753910  0.18830528  0.33958605     0.15200
C1593       C  0.82832247  0.01537391  0.49700734    -0.17700
C1594       C  0.80336506  0.02912245  0.50143065    -0.19800
C1595       C  0.80173386  0.05797800  0.49934362     0.20800
C1596       C  0.82558888  0.07301495  0.49282569    -0.02800
C1597       C  0.85058076  0.05915945  0.48778947    -0.05800
C1598       C  0.85209813  0.03017461  0.49014096     0.21100
C1599       C  0.87424507  0.07445923  0.48115524     0.19200
C1600       C  0.87286245  0.10327433  0.47963707    -0.17300
C1601       C  0.84829201  0.11694630  0.48507634    -0.19500
C1602       C  0.82463647  0.10199133  0.49172329     0.20700
C1603       C  0.79988398  0.11563436  0.49641634    -0.32500
C1604       C  0.77504673  0.10097501  0.49971555     0.01400
C1605       C  0.77665443  0.07201117  0.50309594    -0.23900
C1606       C  0.87762338  0.01681694  0.48688501    -0.28500
C1607       C  0.90132798  0.03227345  0.48115268     0.07100
C1608       C  0.89925752  0.06087420  0.47754981    -0.27100
H1609       H  0.82904282  0.99315500  0.49905982     0.11800
H1610       H  0.78531910  0.01716035  0.50648270     0.12900
H1611       H  0.89091466  0.11527732  0.47468088     0.12000
H1612       H  0.84774892  0.13924153  0.48391562     0.11300
H1613       H  0.79936118  0.13793978  0.49503689     0.16700
H1614       H  0.75871052  0.06015985  0.50841509     0.12600
H1615       H  0.87938535  0.99485062  0.49053653     0.15400
H1616       H  0.91769976  0.07281603  0.47387784     0.15200
C1617       C  0.69029116  0.03642250  0.47058438    -0.17700
C1618       C  0.66752744  0.01926811  0.47467080    -0.19800
C1619       C  0.64807391  0.02552325  0.49493933     0.20800
C1620       C  0.65176757  0.04909066  0.51145278    -0.02800
C1621       C  0.67445811  0.06656599  0.50700437    -0.05800
C1622       C  0.69389453  0.06025078  0.48654715     0.21100
C1623       C  0.67719380  0.09082627  0.52249751     0.19200
C1624       C  0.65755094  0.09747708  0.54240576    -0.17300
C1625       C  0.63533885  0.08001357  0.54711802    -0.19500
C1626       C  0.63218596  0.05585714  0.53169082     0.20700
C1627       C  0.60885672  0.03937358  0.53493325    -0.32500
C1628       C  0.60421139  0.01700479  0.51739908     0.01400
C1629       C  0.62413870  0.00970711  0.49789168    -0.23900
C1630       C  0.71670962  0.07766758  0.48273316    -0.28500
C1631       C  0.72117158  0.10059343  0.50009337     0.07100
C1632       C  0.69964627  0.10803855  0.51814765    -0.27100
H1633       H  0.70498800  0.03113774  0.45482002     0.11800
H1634       H  0.66496347  0.00128004  0.46174905     0.12900
H1635       H  0.65946317  0.11613818  0.55447384     0.12000
H1636       H  0.62035341  0.08566381  0.56248756     0.11300
H1637       H  0.59296703  0.04557170  0.54918708     0.16700
H1638       H  0.62003380  0.99292562  0.48377016     0.12600
H1639       H  0.73167760  0.07271566  0.46710873     0.15400
H1640       H  0.70021059  0.12722327  0.52942202     0.15200
C1641       C  0.18734287  0.55592402  0.69897734    -0.17700
C1642       C  0.20192256  0.58084358  0.69663757    -0.19800
C1643       C  0.20138152  0.60045648  0.71787500     0.20800
C1644       C  0.18601748  0.59452513  0.74170709    -0.02800
C1645       C  0.17112260  0.56962663  0.74390528    -0.05800
C1646       C  0.17174533  0.55014379  0.72252487     0.21100
C1647       C  0.15511045  0.56459298  0.76736481     0.19200
C1648       C  0.15457728  0.58386742  0.78875326    -0.17300
C1649       C  0.16968960  0.60808810  0.78687284    -0.19500
C1650       C  0.18516562  0.61364610  0.76335155     0.20700
C1651       C  0.19936667  0.63835854  0.76116738    -0.32500
C1652       C  0.21430808  0.64525121  0.73739372     0.01400
C1653       C  0.21549038  0.62595248  0.71575243    -0.23900
C1654       C  0.15656901  0.52547286  0.72505989    -0.28500
C1655       C  0.14038161  0.52006260  0.74863566     0.07100
C1656       C  0.13944368  0.54063776  0.76915132    -0.27100
H1657       H  0.18810000  0.54125549  0.68224555     0.11800
H1658       H  0.21353916  0.58480342  0.67815793     0.12900
H1659       H  0.14245298  0.58020916  0.80698081     0.12000
H1660       H  0.16893338  0.62269325  0.80367539     0.11300
H1661       H  0.19826436  0.65253575  0.77831435     0.16700
H1662       H  0.22700422  0.63079917  0.69741421     0.12600
H1663       H  0.15699102  0.51051378  0.70855658     0.15400
H1664       H  0.12603456  0.53889132  0.78660383     0.15200
C1665       C  0.13828594  0.36692909  0.76591749    -0.17700
C1666       C  0.12442462  0.39189516  0.76251935    -0.19800
C1667       C  0.13909161  0.41642284  0.75856600     0.20800
C1668       C  0.16795850  0.41595661  0.75841746    -0.02800
C1669       C  0.18201916  0.39064818  0.76161587    -0.05800
C1670       C  0.16703739  0.36606277  0.76523136     0.21100
C1671       C  0.21095263  0.38985604  0.76061072     0.19200
C1672       C  0.22553621  0.41463176  0.75761981    -0.17300
C1673       C  0.21157339  0.43980275  0.75498593    -0.19500
C1674       C  0.18273813  0.44067006  0.75491658     0.20700
C1675       C  0.16849550  0.46576710  0.75154544    -0.32500
C1676       C  0.13940496  0.46653362  0.75096221     0.01400
C1677       C  0.12522954  0.44135510  0.75484355    -0.23900
C1678       C  0.18093622  0.34087963  0.76718535    -0.28500
C1679       C  0.20965238  0.33958258  0.76464300     0.07100
C1680       C  0.22462590  0.36425668  0.76181387    -0.27100
H1681       H  0.12649040  0.34821886  0.76866273     0.11800
H1682       H  0.10219235  0.39199444  0.76282792     0.12900
H1683       H  0.24775595  0.41452220  0.75704141     0.12000
H1684       H  0.22335387  0.45856383  0.75256550     0.11300
H1685       H  0.18036151  0.48448161  0.75007111     0.16700
H1686       H  0.10298140  0.44137383  0.75523373     0.12600
H1687       H  0.16915658  0.32203991  0.76915350     0.15400
H1688       H  0.24676761  0.36346901  0.75995824     0.15200
C1689       C  0.03992499  0.54821044  0.66606986    -0.17700
C1690       C  0.05556160  0.54575687  0.69026223    -0.19800
C1691       C  0.07026898  0.52145034  0.69600664     0.20800
C1692       C  0.06862137  0.49926858  0.67749937    -0.02800
C1693       C  0.05216690  0.50138536  0.65364413    -0.05800
C1694       C  0.03819356  0.52618942  0.64741558     0.21100
C1695       C  0.05033350  0.47880865  0.63567117     0.19200
C1696       C  0.06483697  0.45447828  0.64130164    -0.17300
C1697       C  0.08188343  0.45281526  0.66424116    -0.19500
C1698       C  0.08401788  0.47514448  0.68235706     0.20700
C1699       C  0.10168735  0.47367717  0.70495122    -0.32500
C1700       C  0.10286257  0.49501810  0.72465931     0.01400
C1701       C  0.08682126  0.51898152  0.71967864    -0.23900
C1702       C  0.02361385  0.52865534  0.62231117    -0.28500
C1703       C  0.02242767  0.50621116  0.60397592     0.07100
C1704       C  0.03495738  0.48111078  0.61169197    -0.27100
H1705       H  0.02933173  0.56739916  0.66188208     0.11800
H1706       H  0.05656745  0.56308843  0.70423586     0.12900
H1707       H  0.06360301  0.43698228  0.62753178     0.12000
H1708       H  0.09341553  0.43403860  0.66781071     0.11300
H1709       H  0.11459058  0.45568840  0.70649867     0.16700
H1710       H  0.08768936  0.53594206  0.73411875     0.12600
H1711       H  0.01395325  0.54800987  0.61680358     0.15400
H1712       H  0.03414645  0.46334763  0.59822565     0.15200
C1713       C  0.02152722  0.48444460  0.83146164    -0.17700
C1714       C  0.03462032  0.48717431  0.80603806    -0.19800
C1715       C  0.06339730  0.48802148  0.80445545     0.20800
C1716       C  0.07904217  0.48544208  0.82873291    -0.02800
C1717       C  0.06587565  0.48225643  0.85431041    -0.05800
C1718       C  0.03696092  0.48220605  0.85577381     0.21100
C1719       C  0.08170991  0.47963126  0.87847155     0.19200
C1720       C  0.11043020  0.48004682  0.87693267    -0.17300
C1721       C  0.12341033  0.48334200  0.85167832    -0.19500
C1722       C  0.10787932  0.48615377  0.82755198     0.20700
C1723       C  0.12085255  0.48959953  0.80231450    -0.32500
C1724       C  0.10576834  0.49252098  0.77758815     0.01400
C1725       C  0.07674627  0.49127270  0.77907401    -0.23900
C1726       C  0.02410448  0.48069715  0.88156032    -0.28500
C1727       C  0.03987977  0.47879168  0.90580439     0.07100
C1728       C  0.06864293  0.47749896  0.90388921    -0.27100
H1729       H  0.99930985  0.48430696  0.83212287     0.11800
H1730       H  0.02220483  0.48895907  0.78762846     0.12900
H1731       H  0.12286839  0.47813723  0.89531802     0.12000
H1732       H  0.14562915  0.48379758  0.85103046     0.11300
H1733       H  0.14309250  0.48992883  0.80170736     0.16700
H1734       H  0.06428563  0.49219908  0.76071551     0.12600
H1735       H  0.00192584  0.48170278  0.88281313     0.15400
H1736       H  0.08104280  0.47631988  0.92237744     0.15200
C1737       C  0.25699422  0.63635744  0.87381684    -0.17700
C1738       C  0.25189969  0.62393996  0.89910971    -0.19800
C1739       C  0.25802518  0.63785244  0.92358632     0.20800
C1740       C  0.27011392  0.66421112  0.92260407    -0.02800
C1741       C  0.27499586  0.67696552  0.89697675    -0.05800
C1742       C  0.26808200  0.66298640  0.87259326     0.21100
C1743       C  0.28608107  0.70386955  0.89574555     0.19200
C1744       C  0.29333338  0.71713933  0.92036152    -0.17300
C1745       C  0.28927334  0.70409475  0.94577058    -0.19500
C1746       C  0.27727935  0.67777017  0.94714422     0.20700
C1747       C  0.27251263  0.66468196  0.97252316    -0.32500
C1748       C  0.25873000  0.63895872  0.97394530     0.01400
C1749       C  0.25233447  0.62565267  0.94894651    -0.23900
C1750       C  0.27111328  0.67626682  0.84738158    -0.28500
C1751       C  0.28012563  0.70375588  0.84586003     0.07100
C1752       C  0.28856296  0.71726026  0.87005190    -0.27100
H1753       H  0.25166442  0.62536585  0.85519120     0.11800
H1754       H  0.24290023  0.60353243  0.89952231     0.12900
H1755       H  0.30195610  0.73770369  0.91999012     0.12000
H1756       H  0.29503748  0.71484438  0.96440096     0.11300
H1757       H  0.28003999  0.67442405  0.99103852     0.16700
H1758       H  0.24351514  0.60516720  0.94920512     0.12600
H1759       H  0.26476029  0.66569107  0.82879562     0.15400
H1760       H  0.29534579  0.73849805  0.86907541     0.15200
C1761       C  0.20008956  0.53718116  0.02311866    -0.17700
C1762       C  0.17459995  0.52389194  0.02504716    -0.19800
C1763       C  0.15018582  0.53810927  0.01898811     0.20800
C1764       C  0.15164636  0.56591344  0.01054804    -0.02800
C1765       C  0.17745026  0.57891521  0.00744488    -0.05800
C1766       C  0.20176588  0.56468172  0.01420932     0.21100
C1767       C  0.17882827  0.60633534  0.99807417     0.19200
C1768       C  0.15448422  0.62082593  0.99256452    -0.17300
C1769       C  0.12896438  0.60824728  0.99632080    -0.19500
C1770       C  0.12732748  0.58079359  0.00520921     0.20700
C1771       C  0.10178660  0.56793476  0.00854162    -0.32500
C1772       C  0.10003318  0.54001094  0.01611465     0.01400
C1773       C  0.12438103  0.52511238  0.02112048    -0.23900
C1774       C  0.22723292  0.57829867  0.01238257    -0.28500
C1775       C  0.22922340  0.60523009  0.00126881     0.07100
C1776       C  0.20444861  0.61899900  0.99466976    -0.27100
H1777       H  0.21854503  0.52582825  0.02831889     0.11800
H1778       H  0.17396877  0.50257363  0.03161477     0.12900
H1779       H  0.15517145  0.64199257  0.98552103     0.12000
H1780       H  0.11048397  0.61994633  0.99205600     0.11300
H1781       H  0.08317842  0.57940812  0.00411943     0.16700
H1782       H  0.12320005  0.50355829  0.02682933     0.12600
H1783       H  0.24525562  0.56796975  0.02031689     0.15400
H1784       H  0.20510541  0.64013945  0.98755383     0.15200
C1785       C  0.35809825  0.62055857  0.01045783    -0.17700
C1786       C  0.38369674  0.60856808  0.00547448    -0.19800
C1787       C  0.38550093  0.58193107  0.99442726     0.20800
C1788       C  0.36127968  0.56728540  0.98817888    -0.02800
C1789       C  0.33540775  0.57973940  0.99254023    -0.05800
C1790       C  0.33385334  0.60631690  0.00403468     0.21100
C1791       C  0.31119423  0.56586757  0.98484180     0.19200
C1792       C  0.31301857  0.53915348  0.97385864    -0.17300
C1793       C  0.33859176  0.52627928  0.97072723    -0.19500
C1794       C  0.36290042  0.54023524  0.97762120     0.20700
C1795       C  0.38875356  0.52762438  0.97443495    -0.32500
C1796       C  0.41298312  0.54222550  0.98054974     0.01400
C1797       C  0.41110763  0.56954497  0.99001425    -0.23900
C1798       C  0.30815678  0.61850606  0.00844049    -0.28500
C1799       C  0.28348119  0.60515580  0.00074330     0.07100
C1800       C  0.28567671  0.57915752  0.98766527    -0.27100
H1801       H  0.35726934  0.64109880  0.01913325     0.11800
H1802       H  0.40210406  0.62005331  0.01049223     0.12900
H1803       H  0.29462322  0.52809105  0.96793257     0.12000
H1804       H  0.33936917  0.50552360  0.96257973     0.11300
H1805       H  0.39005756  0.50649218  0.96734810     0.16700
H1806       H  0.42964404  0.58071018  0.99535948     0.12600
H1807       H  0.30742351  0.63913412  0.01690095     0.15400
H1808       H  0.26773921  0.56940155  0.97888584     0.15200
C1809       C  0.22651438  0.70610951  0.05473718    -0.17700
C1810       C  0.22208496  0.71935825  0.07994459    -0.19800
C1811       C  0.22784364  0.70581535  0.10479270     0.20800
C1812       C  0.23811440  0.67856124  0.10403971    -0.02800
C1813       C  0.24322733  0.66549403  0.07862043    -0.05800
C1814       C  0.23729603  0.67923681  0.05383290     0.21100
C1815       C  0.25415458  0.63860031  0.07808321     0.19200
C1816       C  0.25935560  0.62470640  0.10279960    -0.17300
C1817       C  0.25420515  0.63752904  0.12790195    -0.19500
C1818       C  0.24385652  0.66449636  0.12870273     0.20700
C1819       C  0.24029772  0.67798333  0.15377505    -0.32500
C1820       C  0.23160323  0.70560310  0.15482527     0.01400
C1821       C  0.22459390  0.71926418  0.13030269    -0.23900
C1822       C  0.24193253  0.66576767  0.02865195    -0.28500
C1823       C  0.25413496  0.63924330  0.02770818     0.07100
C1824       C  0.25951560  0.62584659  0.05290837    -0.27100
H1825       H  0.22181687  0.71703908  0.03590887     0.11800
H1826       H  0.21424890  0.74025635  0.07998926     0.12900
H1827       H  0.26757971  0.60395257  0.10272344     0.12000
H1828       H  0.25872104  0.62649192  0.14671800     0.11300
H1829       H  0.24590011  0.66746426  0.17263530     0.16700
H1830       H  0.21838214  0.74070463  0.13096388     0.12600
H1831       H  0.23529909  0.67579182  0.00994573     0.15400
H1832       H  0.26731992  0.60492746  0.05289865     0.15200
C1833       C  0.73722857  0.28244447  0.05269121    -0.17700
C1834       C  0.73127106  0.26887469  0.07743665    -0.19800
C1835       C  0.72908504  0.28371924  0.10209689     0.20800
C1836       C  0.73329152  0.31253473  0.10166669    -0.02800
C1837       C  0.74022272  0.32602364  0.07691569    -0.05800
C1838       C  0.74176077  0.31106590  0.05216189     0.21100
C1839       C  0.74549248  0.35454925  0.07701251     0.19200
C1840       C  0.74323864  0.36956298  0.10147373    -0.17300
C1841       C  0.73586070  0.35638789  0.12577873    -0.19500
C1842       C  0.73106896  0.32790860  0.12609588     0.20700
C1843       C  0.72532991  0.31445790  0.15073559    -0.32500
C1844       C  0.72268158  0.28565123  0.15182677     0.01400
C1845       C  0.72388668  0.27031375  0.12732712    -0.23900
C1846       C  0.74701653  0.32510019  0.02732359    -0.28500
C1847       C  0.75188626  0.35391660  0.02711285     0.07100
C1848       C  0.75218744  0.36789268  0.05257264    -0.27100
H1849       H  0.73841787  0.27049888  0.03395805     0.11800
H1850       H  0.72828244  0.24675674  0.07725636     0.12900
H1851       H  0.74700043  0.39156811  0.10177202     0.12000
H1852       H  0.73432280  0.36841790  0.14444032     0.11300
H1853       H  0.72480161  0.32627212  0.16963275     0.16700
H1854       H  0.72253586  0.24803732  0.12814243     0.12600
H1855       H  0.74608419  0.31359733  0.00837152     0.15400
H1856       H  0.75590674  0.38992138  0.05296216     0.15200
C1857       C  0.87727837  0.39625756  0.02107697    -0.17700
C1858       C  0.85187237  0.38370623  0.02486343    -0.19800
C1859       C  0.82888106  0.39269673  0.00997779     0.20800
C1860       C  0.83157467  0.41426395  0.99078924    -0.02800
C1861       C  0.85721000  0.42739345  0.98734449    -0.05800
C1862       C  0.88000022  0.41824994  0.00262850     0.21100
C1863       C  0.85999713  0.44972617  0.96889663     0.19200
C1864       C  0.83704023  0.45796444  0.95337858    -0.17300
C1865       C  0.81177922  0.44430647  0.95616758    -0.19500
C1866       C  0.80878317  0.42254845  0.97499234     0.20700
C1867       C  0.78352294  0.40885132  0.97827069    -0.32500
C1868       C  0.78001376  0.38828435  0.99864474     0.01400
C1869       C  0.80338149  0.38018506  0.01393689    -0.23900
C1870       C  0.90508574  0.43162459  0.99987493    -0.28500
C1871       C  0.90799289  0.45501430  0.98295829     0.07100
C1872       C  0.88546183  0.46364195  0.96688686    -0.27100
H1873       H  0.89472676  0.38905265  0.03293675     0.11800
H1874       H  0.85019868  0.36698694  0.03950167     0.12900
H1875       H  0.83861014  0.47496292  0.93906497     0.12000
H1876       H  0.79446835  0.45101834  0.94384430     0.11300
H1877       H  0.76636233  0.41436448  0.96515391     0.16700
H1878       H  0.80235276  0.36323387  0.02829869     0.12600
H1879       H  0.92233110  0.42423838  0.01195467     0.15400
H1880       H  0.88743974  0.48150998  0.95371239     0.15200
C1881       C  0.65224627  0.37778885  0.01517861    -0.17700
C1882       C  0.62816825  0.39229919  0.02055185    -0.19800
C1883       C  0.62869480  0.42105698  0.02310465     0.20800
C1884       C  0.65371705  0.43540604  0.02064400    -0.02800
C1885       C  0.67813661  0.42064508  0.01547923    -0.05800
C1886       C  0.67722000  0.39181056  0.01248271     0.21100
C1887       C  0.70332961  0.43468794  0.01315616     0.19200
C1888       C  0.70373748  0.46354121  0.01580356    -0.17300
C1889       C  0.67935719  0.47831164  0.02013621    -0.19500
C1890       C  0.65416813  0.46446812  0.02251708     0.20700
C1891       C  0.62927074  0.47903960  0.02545731    -0.32500
C1892       C  0.60429960  0.46461611  0.02697541     0.01400
C1893       C  0.60435374  0.43573479  0.02668403    -0.23900
C1894       C  0.70122105  0.37730806  0.00680162    -0.28500
C1895       C  0.72685653  0.39071552  0.00436013     0.07100
C1896       C  0.72760399  0.41965773  0.00834253    -0.27100
H1897       H  0.65131138  0.35558539  0.01298902     0.11800
H1898       H  0.60903991  0.38106629  0.02223940     0.12900
H1899       H  0.72287112  0.47474761  0.01407824     0.12000
H1900       H  0.68019125  0.50057959  0.02147491     0.11300
H1901       H  0.62912405  0.50136710  0.02482558     0.16700
H1902       H  0.58497867  0.42472617  0.02711539     0.05400
H1903       H  0.70015618  0.35510530  0.00449459     0.15400
H1904       H  0.74681391  0.43070241  0.00848136     0.15200
C1905       C  0.29492861  0.90095328  0.71209981    -0.17700
C1906       C  0.30881581  0.92610666  0.70969385    -0.19800
C1907       C  0.32511702  0.93599118  0.73137108     0.20800
C1908       C  0.32684011  0.92063453  0.75590972    -0.02800
C1909       C  0.31305381  0.89515666  0.75829612    -0.05800
C1910       C  0.29717282  0.88520512  0.73620068     0.21100
C1911       C  0.31572271  0.87936380  0.78254875     0.19200
C1912       C  0.33098404  0.88985106  0.80464599    -0.17300
C1913       C  0.34404485  0.91539728  0.80250513    -0.19500
C1914       C  0.34255585  0.93059328  0.77801374     0.20700
C1915       C  0.35727788  0.95512807  0.77507918    -0.32500
C1916       C  0.35886783  0.96896052  0.74946069     0.01400
C1917       C  0.34051713  0.96036572  0.72859409    -0.23900
C1918       C  0.28441616  0.85938597  0.73835934    -0.28500
C1919       C  0.28806776  0.84298372  0.76195338     0.07100
C1920       C  0.30358533  0.85316139  0.78404702    -0.27100
H1921       H  0.28280625  0.89358445  0.69491807     0.11800
H1922       H  0.30719116  0.93758664  0.69068875     0.12900
H1923       H  0.33306283  0.87816663  0.82348618     0.12000
H1924       H  0.35602269  0.92288129  0.81973867     0.11300
H1925       H  0.36782061  0.96292428  0.79301118     0.16700
H1926       H  0.33947491  0.97185751  0.70954637     0.12600
H1927       H  0.27269430  0.85145023  0.72112556     0.15400
H1928       H  0.30635040  0.84059887  0.80224908     0.15200
C1929       C  0.30847022  0.05943000  0.78310032    -0.17700
C1930       C  0.29181916  0.08288169  0.78077993    -0.19800
C1931       C  0.29068550  0.09786958  0.75613359     0.20800
C1932       C  0.30571473  0.08861450  0.73330570    -0.02800
C1933       C  0.32269866  0.06501281  0.73574804    -0.05800
C1934       C  0.32440947  0.05057673  0.76085222     0.21100
C1935       C  0.33824641  0.05614806  0.71318781     0.19200
C1936       C  0.33628323  0.07049146  0.68818915    -0.17300
C1937       C  0.31971298  0.09399145  0.68582850    -0.19500
C1938       C  0.30457136  0.10349822  0.70835403     0.20700
C1939       C  0.28945682  0.12829217  0.70681589    -0.32500
C1940       C  0.27594691  0.13854099  0.73011059     0.01400
C1941       C  0.27593195  0.12268007  0.75435859    -0.23900
C1942       C  0.34231067  0.02787392  0.76344281    -0.28500
C1943       C  0.35920910  0.01944006  0.74145870     0.07100
C1944       C  0.35573504  0.03330293  0.71595310    -0.27100
H1945       H  0.30930274  0.04854349  0.80249524     0.11800
H1946       H  0.28026485  0.08964769  0.79848826     0.12900
H1947       H  0.34803609  0.06385564  0.67056089     0.12000
H1948       H  0.31913593  0.10501643  0.66650414     0.11300
H1949       H  0.28992844  0.14057487  0.68824609     0.16700
H1950       H  0.26563648  0.13054748  0.77242442     0.12600
H1951       H  0.34348808  0.01691108  0.78278863     0.15400
H1952       H  0.36625591  0.02639116  0.69774123     0.15200
C1953       C  0.43990327  0.04328518  0.84754444    -0.17700
C1954       C  0.42455198  0.04407335  0.82327402    -0.19800
C1955       C  0.42096349  0.02017044  0.80752379     0.20800
C1956       C  0.43424248  0.99556087  0.81562825    -0.02800
C1957       C  0.44908775  0.99449727  0.84058771    -0.05800
C1958       C  0.45146487  0.01839677  0.85671727     0.21100
C1959       C  0.46054822  0.96933896  0.84991627     0.19200
C1960       C  0.45860831  0.94595253  0.83306422    -0.17300
C1961       C  0.44475971  0.94727589  0.80779881    -0.19500
C1962       C  0.43198457  0.97183967  0.79925565     0.20700
C1963       C  0.41595314  0.97275394  0.77529833    -0.32500
C1964       C  0.39942999  0.99604393  0.76895372     0.01400
C1965       C  0.40353382  0.02023575  0.78446805    -0.23900
C1966       C  0.46408464  0.01680610  0.88243262    -0.28500
C1967       C  0.47330646  0.99139282  0.89321214     0.07100
C1968       C  0.47252489  0.96785233  0.87636095    -0.27100
H1969       H  0.44181004  0.06189688  0.85969067     0.11800
H1970       H  0.41491084  0.06326088  0.81717846     0.12900
H1971       H  0.46738196  0.92650733  0.83962687     0.12000
H1972       H  0.44317536  0.92880537  0.79540707     0.11300
H1973       H  0.41428451  0.95439537  0.76272309     0.16700
H1974       H  0.39322543  0.03916857  0.77886111     0.12600
H1975       H  0.46526381  0.03534827  0.89480462     0.15400
H1976       H  0.47985270  0.94829543  0.88425482     0.15200
C1977       C  0.40807028  0.94898165  0.65624045    -0.17700
C1978       C  0.42056179  0.95131974  0.63055492    -0.19800
C1979       C  0.43647776  0.97452911  0.62417626     0.20800
C1980       C  0.44036748  0.99531969  0.64401439    -0.02800
C1981       C  0.42737564  0.99314057  0.66974710    -0.05800
C1982       C  0.41095221  0.97000216  0.67582410     0.21100
C1983       C  0.43045489  0.01434051  0.68917783     0.19200
C1984       C  0.44736811  0.03698096  0.68330723    -0.17300
C1985       C  0.46056372  0.03898819  0.65795682    -0.19500
C1986       C  0.45685755  0.01850926  0.63798324     0.20700
C1987       C  0.46907333  0.02088433  0.61202033    -0.32500
C1988       C  0.46448801  0.00059344  0.59207425     0.01400
C1989       C  0.44844180  0.97742090  0.59826548    -0.23900
C1990       C  0.39695527  0.96866799  0.70093829    -0.28500
C1991       C  0.39734838  0.99121803  0.71928251     0.07100
C1992       C  0.41567278  0.01316304  0.71367346    -0.27100
H1993       H  0.39558708  0.93103664  0.66053100     0.11800
H1994       H  0.41758375  0.93507471  0.61558565     0.12900
H1995       H  0.45003434  0.05337809  0.69816729     0.12000
H1996       H  0.47326033  0.05680849  0.65378937     0.11300
H1997       H  0.48184719  0.03850182  0.60721368     0.16700
H1998       H  0.44545151  0.96155534  0.58285923     0.12600
H1999       H  0.38538788  0.95029037  0.70545548     0.15400
H2000       H  0.41710479  0.03030507  0.72786147     0.15200
C2001       C  0.38389264  0.73478871  0.14481867    -0.17700
C2002       C  0.40963505  0.73125857  0.13301776    -0.19800
C2003       C  0.43235110  0.74576262  0.14318893     0.20800
C2004       C  0.42903634  0.76450313  0.16500901    -0.02800
C2005       C  0.40304116  0.76773920  0.17731742    -0.05800
C2006       C  0.38055028  0.75264590  0.16716383     0.21100
C2007       C  0.39960581  0.78573203  0.19987198     0.19200
C2008       C  0.42225081  0.80114358  0.20908522    -0.17300
C2009       C  0.44788713  0.79860026  0.19621857    -0.19500
C2010       C  0.45156216  0.78008434  0.17432877     0.20700
C2011       C  0.47722870  0.77690493  0.16149262    -0.32500
C2012       C  0.48143980  0.75653804  0.14103296     0.01400
C2013       C  0.45821171  0.74182963  0.13162314    -0.23900
C2014       C  0.35514901  0.75496313  0.17989926    -0.28500
C2015       C  0.35161878  0.77137299  0.20346858     0.07100
C2016       C  0.37380984  0.78737805  0.21302814    -0.27100
H2017       H  0.36667656  0.72314606  0.13678318     0.11800
H2018       H  0.41180779  0.71702756  0.11602969     0.12900
H2019       H  0.42015491  0.81514960  0.22625511     0.12000
H2020       H  0.46496241  0.81079618  0.20369305     0.11300
H2021       H  0.49404807  0.79019565  0.16754296     0.16700
H2022       H  0.45973616  0.72794358  0.11433396     0.12600
H2023       H  0.33815454  0.74296133  0.17186423     0.15400
H2024       H  0.37131161  0.80018831  0.23105379     0.15200
C2025       C  0.52938196  0.67302718  0.02616216    -0.17700
C2026       C  0.52761933  0.69853127  0.03955116    -0.19800
C2027       C  0.52096873  0.69994847  0.06753694     0.20800
C2028       C  0.51647984  0.67535332  0.08222561    -0.02800
C2029       C  0.51861532  0.64956931  0.06880313    -0.05800
C2030       C  0.52484410  0.64838909  0.04055259     0.21100
C2031       C  0.51439703  0.62500409  0.08365070     0.19200
C2032       C  0.50794800  0.62638026  0.11166593    -0.17300
C2033       C  0.50580334  0.65187410  0.12490081    -0.19500
C2034       C  0.51005436  0.67645993  0.11036727     0.20700
C2035       C  0.50789328  0.70207385  0.12352887    -0.32500
C2036       C  0.51122002  0.72708520  0.10901239     0.01400
C2037       C  0.51876799  0.72550629  0.08100888    -0.23900
C2038       C  0.52623017  0.62265209  0.02720301    -0.28500
C2039       C  0.52209735  0.59802787  0.04190946     0.07100
C2040       C  0.51643995  0.59949704  0.07021583    -0.27100
H2041       H  0.53429141  0.67258451  0.00450988     0.11800
H2042       H  0.53122223  0.71719870  0.02791924     0.12900
H2043       H  0.50451933  0.60771378  0.12335524     0.12000
H2044       H  0.50077262  0.65235655  0.14652803     0.11300
H2045       H  0.50319246  0.70270799  0.14524157     0.16700
H2046       H  0.52355256  0.74397980  0.06960158     0.12600
H2047       H  0.53050640  0.62177309  0.00541669     0.15400
H2048       H  0.51278927  0.58073104  0.08170556     0.15200
C2049       C  0.46276271  0.83048203  0.03134944    -0.17700
C2050       C  0.46655075  0.80630886  0.04664336    -0.19800
C2051       C  0.48500295  0.80570781  0.06887162     0.20800
C2052       C  0.49972781  0.82965699  0.07581144    -0.02800
C2053       C  0.49544675  0.85421302  0.06081898    -0.05800
C2054       C  0.47702075  0.85462828  0.03828419     0.21100
C2055       C  0.50941917  0.87841357  0.06858195     0.19200
C2056       C  0.52771300  0.87790950  0.09087874    -0.17300
C2057       C  0.53220432  0.85351289  0.10544688    -0.19500
C2058       C  0.51830728  0.82928016  0.09809316     0.20700
C2059       C  0.52231266  0.80490405  0.11305318    -0.32500
C2060       C  0.50788260  0.78051778  0.10634918     0.01400
C2061       C  0.48861724  0.78170521  0.08452692    -0.23900
C2062       C  0.47308021  0.87922607  0.02335481    -0.28500
C2063       C  0.48680812  0.90332115  0.03141850     0.07100
C2064       C  0.50476610  0.90277353  0.05401675    -0.27100
H2065       H  0.44848095  0.83035301  0.01425375     0.11800
H2066       H  0.45506716  0.78803268  0.04103868     0.12900
H2067       H  0.53855902  0.89639922  0.09704759     0.12000
H2068       H  0.54642945  0.85364738  0.12259581     0.11300
H2069       H  0.53585979  0.80550941  0.13069008     0.16700
H2070       H  0.47626371  0.76377144  0.07977290     0.12600
H2071       H  0.45912103  0.87978870  0.00599123     0.15400
H2072       H  0.51537504  0.92147584  0.06009786     0.15200
C2073       C  0.69434339  0.97269461  0.00674124    -0.17700
C2074       C  0.66911178  0.98616783  0.00253443    -0.19800
C2075       C  0.64465924  0.97101512  0.99979142     0.20800
C2076       C  0.64571372  0.94203524  0.00197189    -0.02800
C2077       C  0.67102238  0.92855366  0.00669905    -0.05800
C2078       C  0.69563792  0.94379050  0.00851476     0.21100
C2079       C  0.67164761  0.89971117  0.00927455     0.19200
C2080       C  0.64728891  0.88446390  0.00744077    -0.17300
C2081       C  0.62240849  0.89768203  0.00227578    -0.19500
C2082       C  0.62147426  0.92637677  0.99923663     0.20700
C2083       C  0.59658583  0.93956488  0.99370995    -0.32500
C2084       C  0.59504391  0.96840382  0.99167809     0.01400
C2085       C  0.61917311  0.98414068  0.99505813    -0.23900
C2086       C  0.72102959  0.92978498  0.01109778    -0.28500
C2087       C  0.72197298  0.90060599  0.01076007     0.07100
C2088       C  0.69671154  0.88626142  0.01224529    -0.27100
H2089       H  0.71290411  0.98488518  0.00820539     0.11800
H2090       H  0.66878484  0.00844123  0.00107019     0.12900
H2091       H  0.64756900  0.86221552  0.00936148     0.12000
H2092       H  0.60390227  0.88543229  0.00050422     0.11300
H2093       H  0.57808097  0.92727315  0.99197082     0.16700
H2094       H  0.61810110  0.00642222  0.99397390     0.12600
H2095       H  0.73957925  0.94177122  0.01284601     0.15400
H2096       H  0.69674599  0.86392995  0.01304117     0.15200
C2097       C  0.87160558  0.90136517  0.03778158    -0.17700
C2098       C  0.84671889  0.88736474  0.03535111    -0.19800
C2099       C  0.82502582  0.89869411  0.02002217     0.20800
C2100       C  0.82848588  0.92395704  0.00646614    -0.02800
C2101       C  0.85375556  0.93813835  0.00883586    -0.05800
C2102       C  0.87528339  0.92684116  0.02477778     0.21100
C2103       C  0.85750148  0.96347520  0.99525483     0.19200
C2104       C  0.83606569  0.97401995  0.97889428    -0.17300
C2105       C  0.81105747  0.95978804  0.97639000    -0.19500
C2106       C  0.80685172  0.93482703  0.99038571     0.20700
C2107       C  0.78136328  0.92082243  0.98911753    -0.32500
C2108       C  0.77656516  0.89718792  0.00544181     0.01400
C2109       C  0.79978757  0.88526278  0.01863262    -0.23900
C2110       C  0.90027422  0.94093367  0.02721187    -0.28500
C2111       C  0.90435520  0.96628902  0.01390572     0.07100
C2112       C  0.88271708  0.97750614  0.99799981    -0.27100
H2113       H  0.88795772  0.89229435  0.04992253     0.11800
H2114       H  0.84429697  0.86782439  0.04582920     0.12900
H2115       H  0.83861064  0.99334060  0.96806661     0.12000
H2116       H  0.79485603  0.96853961  0.96383173     0.11300
H2117       H  0.76514006  0.92877837  0.97609197     0.16700
H2118       H  0.79837446  0.86537081  0.02856003     0.12600
H2119       H  0.91675410  0.93187849  0.03921145     0.15400
H2120       H  0.88573235  0.99674935  0.98714135     0.15200
C2121       C  0.76684794  0.87888582  0.10715555    -0.17700
C2122       C  0.77299311  0.86441657  0.13120017    -0.19800
C2123       C  0.77063484  0.83561687  0.13198144     0.20800
C2124       C  0.76193148  0.82126667  0.10830188    -0.02800
C2125       C  0.75617268  0.83587504  0.08385576    -0.05800
C2126       C  0.75857855  0.86476632  0.08340284     0.21100
C2127       C  0.74799982  0.82160274  0.05994365     0.19200
C2128       C  0.74479886  0.79286491  0.06101984    -0.17300
C2129       C  0.75000909  0.77841645  0.08539890    -0.19500
C2130       C  0.75876385  0.79239424  0.10910685     0.20700
C2131       C  0.76378743  0.77813617  0.13375319    -0.32500
C2132       C  0.77225374  0.79234553  0.15755996     0.01400
C2133       C  0.77611953  0.82105466  0.15625275    -0.23900
C2134       C  0.75351463  0.87906092  0.05901507    -0.28500
C2135       C  0.74802237  0.86500135  0.03414833     0.07100
C2136       C  0.74378946  0.83619629  0.03529020    -0.27100
H2137       H  0.76888568  0.90112053  0.10704404     0.11800
H2138       H  0.77944519  0.87577649  0.14924387     0.12900
H2139       H  0.73841385  0.78151883  0.04294753     0.12000
H2140       H  0.74730838  0.75625977  0.08566978     0.11300
H2141       H  0.76042981  0.75607337  0.13458852     0.16700
H2142       H  0.78202466  0.83233328  0.17454693     0.12600
H2143       H  0.75585392  0.90128662  0.05877059     0.15400
H2144       H  0.73745545  0.82493244  0.01722652     0.15200
C2145       C  0.71259792  0.90567713  0.21396402    -0.17700
C2146       C  0.69575168  0.92884244  0.21000695    -0.19800
C2147       C  0.67852713  0.93821677  0.23108433     0.20800
C2148       C  0.67881121  0.92427698  0.25652208    -0.02800
C2149       C  0.69555427  0.90075921  0.26046264    -0.05800
C2150       C  0.71243378  0.89131722  0.23903009     0.21100
C2151       C  0.69488776  0.88634911  0.28567569     0.19200
C2152       C  0.67855536  0.89630021  0.30709402    -0.17300
C2153       C  0.66265860  0.91998923  0.30344325    -0.19500
C2154       C  0.66234142  0.93378057  0.27810552     0.20700
C2155       C  0.64560970  0.95682083  0.27415638    -0.32500
C2156       C  0.64298415  0.96991739  0.24817637     0.01400
C2157       C  0.66085034  0.96100588  0.22714196    -0.23900
C2158       C  0.72805565  0.86717788  0.24277593    -0.28500
C2159       C  0.72619843  0.85185547  0.26731310     0.07100
C2160       C  0.70986425  0.86180457  0.28877471    -0.27100
H2161       H  0.72542736  0.89871422  0.19723607     0.11800
H2162       H  0.69600455  0.93926027  0.19034985     0.12900
H2163       H  0.67790758  0.88564071  0.32661524     0.12000
H2164       H  0.65009608  0.92717515  0.32028583     0.11300
H2165       H  0.63497809  0.96451474  0.29198549     0.16700
H2166       H  0.66075761  0.97170422  0.20762403     0.12600
H2167       H  0.74028745  0.85934361  0.22595524     0.15400
H2168       H  0.70830606  0.85004423  0.30762079     0.15200
C2169       C  0.92418836  0.70794623  0.34438928    -0.17700
C2170       C  0.89975047  0.70949216  0.32953112    -0.19800
C2171       C  0.89223452  0.73404055  0.31631409     0.20800
C2172       C  0.90966120  0.75710584  0.31746484    -0.02800
C2173       C  0.93468266  0.75537058  0.33219905    -0.05800
C2174       C  0.94168692  0.73081564  0.34599015     0.21100
C2175       C  0.95231479  0.77827632  0.33364045     0.19200
C2176       C  0.94475377  0.80276224  0.32010566    -0.17300
C2177       C  0.91975201  0.80460335  0.30570698    -0.19500
C2178       C  0.90185560  0.78193343  0.30437443     0.20700
C2179       C  0.87613438  0.78366870  0.29079142    -0.32500
C2180       C  0.85840174  0.76070630  0.29020624     0.01400
C2181       C  0.86719760  0.73590213  0.30254740    -0.23900
C2182       C  0.96574146  0.72944956  0.36167001    -0.28500
C2183       C  0.98411037  0.75197570  0.36339108     0.07100
C2184       C  0.97689329  0.77639191  0.34893257    -0.27100
H2185       H  0.92932284  0.68887151  0.35478507     0.11800
H2186       H  0.88648516  0.69159216  0.32876609     0.12900
H2187       H  0.95803269  0.82063750  0.32093857     0.12000
H2188       H  0.91432362  0.82384787  0.29580340     0.11300
H2189       H  0.86975315  0.80284212  0.28131330     0.16700
H2190       H  0.85417802  0.71780243  0.30210370     0.12600
H2191       H  0.96934617  0.71061558  0.37284178     0.15400
H2192       H  0.99030165  0.79416497  0.35011601     0.15200
C2193       C  0.85491049  0.58760961  0.19866086    -0.17700
C2194       C  0.84023407  0.61220802  0.19548652    -0.19800
C2195       C  0.81822237  0.61834080  0.21290294     0.20800
C2196       C  0.81050803  0.59903779  0.23321777    -0.02800
C2197       C  0.82513213  0.57402992  0.23615939    -0.05800
C2198       C  0.84762234  0.56855101  0.21908743     0.21100
C2199       C  0.81793368  0.55506959  0.25688351     0.19200
C2200       C  0.79593487  0.56119249  0.27433456    -0.17300
C2201       C  0.78164105  0.58608813  0.27167742    -0.19500
C2202       C  0.78896627  0.60523011  0.25139583     0.20700
C2203       C  0.77614468  0.63105180  0.24995893    -0.32500
C2204       C  0.78441946  0.65074423  0.23053888     0.01400
C2205       C  0.80483367  0.64401622  0.21144860    -0.23900
C2206       C  0.86279137  0.54433935  0.22289638    -0.28500
C2207       C  0.85492802  0.52394379  0.24231781     0.07100
C2208       C  0.83292734  0.53044770  0.25996971    -0.27100
H2209       H  0.87211864  0.58357004  0.18523608     0.11800
H2210       H  0.84651821  0.62672194  0.17983637     0.12900
H2211       H  0.79002758  0.54689382  0.29032333     0.12000
H2212       H  0.76512753  0.59057585  0.28580628     0.11300
H2213       H  0.76071627  0.63650924  0.26499003     0.16700
H2214       H  0.81171420  0.65948169  0.19697426     0.12600
H2215       H  0.88108778  0.54199466  0.21067983     0.15400
H2216       H  0.82722277  0.51607988  0.27595954     0.15200
C2217       C  0.56005926  0.74829818  0.21614264    -0.17700
C2218       C  0.58490013  0.74653487  0.23074818    -0.19800
C2219       C  0.61005892  0.74564726  0.21680352     0.20800
C2220       C  0.61003291  0.74696165  0.18784316    -0.02800
C2221       C  0.58507553  0.74970702  0.17321498    -0.05800
C2222       C  0.55990451  0.74992456  0.18733010     0.21100
C2223       C  0.58537255  0.75183349  0.14439905     0.19200
C2224       C  0.61036746  0.75073141  0.13031668    -0.17300
C2225       C  0.63495717  0.74737289  0.14468420    -0.19500
C2226       C  0.63496716  0.74551653  0.17338967     0.20700
C2227       C  0.65960720  0.74253451  0.18779141    -0.32500
C2228       C  0.66013091  0.74182303  0.21664901     0.01400
C2229       C  0.63522464  0.74356840  0.23113624    -0.23900
C2230       C  0.53509448  0.75131842  0.17238509    -0.28500
C2231       C  0.53510558  0.75444746  0.14344834     0.07100
C2232       C  0.56071215  0.75470465  0.12997682    -0.27100
H2233       H  0.54095085  0.74856472  0.22741549     0.11800
H2234       H  0.58440541  0.74556018  0.25294609     0.12900
H2235       H  0.61087996  0.75222518  0.10814182     0.12000
H2236       H  0.65400700  0.74639393  0.13333835     0.11300
H2237       H  0.67864001  0.74177455  0.17636873     0.16700
H2238       H  0.63543975  0.74321366  0.25336892     0.12600
H2239       H  0.51610507  0.74914228  0.18349342     0.15400
H2240       H  0.56130407  0.75651609  0.10781976     0.15200
C2241       C  0.61756296  0.60873223  0.51725000    -0.17700
C2242       C  0.64223582  0.62229253  0.52308282    -0.19800
C2243       C  0.66716065  0.61220437  0.51278940     0.20800
C2244       C  0.66716748  0.58832729  0.49632024    -0.02800
C2245       C  0.64230566  0.57434210  0.49077983    -0.05800
C2246       C  0.61740507  0.58469758  0.50122489     0.21100
C2247       C  0.64240844  0.54990214  0.47500737     0.19200
C2248       C  0.66724570  0.54033896  0.46406035    -0.17300
C2249       C  0.69171854  0.55474055  0.46878876    -0.19500
C2250       C  0.69192671  0.57859729  0.48511217     0.20700
C2251       C  0.71642364  0.59297859  0.49018199    -0.32500
C2252       C  0.71722229  0.61604201  0.50797264     0.01400
C2253       C  0.69196427  0.62581277  0.51844817    -0.23900
C2254       C  0.59286616  0.57054619  0.49592721    -0.28500
C2255       C  0.59294680  0.54557661  0.48126942     0.07100
C2256       C  0.61776934  0.53531227  0.47084939    -0.27100
H2257       H  0.59861698  0.61691017  0.52549432     0.11800
H2258       H  0.64181406  0.64070186  0.53565386     0.12900
H2259       H  0.66774243  0.52174159  0.45177569     0.12000
H2260       H  0.71057680  0.54699479  0.45996258     0.11300
H2261       H  0.73498407  0.58617079  0.48010892     0.16700
H2262       H  0.69132378  0.64464805  0.53033212     0.12600
H2263       H  0.57379179  0.57822998  0.50440754     0.15400
H2264       H  0.61786435  0.51599737  0.45967771     0.15200
C2265       C  0.87082110  0.61642664  0.50972503    -0.17700
C2266       C  0.84584100  0.63057018  0.50862806    -0.19800
C2267       C  0.82104820  0.61656258  0.51291729     0.20800
C2268       C  0.82137347  0.58811591  0.51860183    -0.02800
C2269       C  0.84662196  0.57373875  0.51949874    -0.05800
C2270       C  0.87142276  0.58801403  0.51503857     0.21100
C2271       C  0.84702003  0.54508263  0.52450867     0.19200
C2272       C  0.82219790  0.53130648  0.52948375    -0.17300
C2273       C  0.79722218  0.54568303  0.52910969    -0.19500
C2274       C  0.79652195  0.57403788  0.52331103     0.20700
C2275       C  0.77143809  0.58843365  0.52179224    -0.32500
C2276       C  0.77066392  0.61658117  0.51418787     0.01400
C2277       C  0.79596122  0.63051025  0.51112292    -0.23900
C2278       C  0.89637036  0.57360065  0.51556942    -0.28500
C2279       C  0.89695281  0.54491632  0.51971660     0.07100
C2280       C  0.87217209  0.53074571  0.52415200    -0.27100
H2281       H  0.88967126  0.62767979  0.50618323     0.11800
H2282       H  0.84590257  0.65245936  0.50422779     0.12900
H2283       H  0.82207933  0.50935991  0.53356114     0.12000
H2284       H  0.77838166  0.53449813  0.53288475     0.11300
H2285       H  0.75270392  0.57756704  0.52659708     0.16700
H2286       H  0.79599833  0.65235287  0.50648100     0.12600
H2287       H  0.91534546  0.58458839  0.51175904     0.15400
H2288       H  0.87251053  0.50864300  0.52736110     0.15200
C2289       C  0.70785700  0.72177581  0.42219581    -0.17700
C2290       C  0.70919329  0.70935395  0.44824764    -0.19800
C2291       C  0.72528400  0.68567086  0.45268077     0.20800
C2292       C  0.73966936  0.67418975  0.43041206    -0.02800
C2293       C  0.73793821  0.68638640  0.40407475    -0.05800
C2294       C  0.72228861  0.71058348  0.39989615     0.21100
C2295       C  0.75213908  0.67441939  0.38197836     0.19200
C2296       C  0.76748156  0.65028695  0.38602764    -0.17300
C2297       C  0.76926503  0.63836115  0.41199884    -0.19500
C2298       C  0.75567745  0.65032861  0.43432527     0.20700
C2299       C  0.75772995  0.63848643  0.46036859    -0.32500
C2300       C  0.74429185  0.64996037  0.48338996     0.01400
C2301       C  0.72709093  0.67311314  0.47880367    -0.23900
C2302       C  0.72190100  0.72330764  0.37371109    -0.28500
C2303       C  0.73706730  0.71192631  0.35188247     0.07100
C2304       C  0.75136107  0.68701410  0.35625115    -0.27100
H2305       H  0.69561307  0.74023184  0.41953282     0.11800
H2306       H  0.69785479  0.71847620  0.46502308     0.12900
H2307       H  0.77840492  0.64081384  0.36915575     0.12000
H2308       H  0.78145067  0.61985256  0.41465911     0.11300
H2309       H  0.76931490  0.61954405  0.46233506     0.16700
H2310       H  0.71494453  0.68121802  0.49552210     0.12600
H2311       H  0.71068540  0.74235138  0.37061412     0.15400
H2312       H  0.76266526  0.67757263  0.33959142     0.15200
C2313       C  0.54099768  0.54813679  0.83148776    -0.17700
C2314       C  0.55295894  0.54568601  0.80537635    -0.19800
C2315       C  0.57555492  0.52814858  0.80110864     0.20800
C2316       C  0.58624700  0.51319422  0.82351214    -0.02800
C2317       C  0.57447941  0.51596240  0.84987968    -0.05800
C2318       C  0.55155205  0.53334034  0.85399638     0.21100
C2319       C  0.58570034  0.50118673  0.87211300     0.19200
C2320       C  0.60849294  0.48402368  0.86811922    -0.17300
C2321       C  0.62004356  0.48129416  0.84214965    -0.19500
C2322       C  0.60900371  0.49568601  0.81973806     0.20700
C2323       C  0.62076299  0.49302483  0.79377539    -0.32500
C2324       C  0.61007943  0.50710509  0.77068634     0.01400
C2325       C  0.58786142  0.52549377  0.77503231    -0.23900
C2326       C  0.53947264  0.53512174  0.88036768    -0.28500
C2327       C  0.55023097  0.51959214  0.90241173     0.07100
C2328       C  0.57376468  0.50332289  0.89797987    -0.27100
H2329       H  0.52346280  0.56161023  0.83405748     0.11800
H2330       H  0.54441413  0.55741716  0.78846286     0.12900
H2331       H  0.61730482  0.47255029  0.88508303     0.12000
H2332       H  0.63760908  0.46784405  0.83958384     0.11300
H2333       H  0.63901575  0.48044956  0.79192027     0.16700
H2334       H  0.58031029  0.53791491  0.75814490     0.12600
H2335       H  0.52137097  0.54770135  0.88346844     0.15400
H2336       H  0.58262612  0.49159122  0.91476808     0.15200
C2337       C  0.60979947  0.50434122  0.61684762    -0.17700
C2338       C  0.62259963  0.50994652  0.64187417    -0.19800
C2339       C  0.60842114  0.50620639  0.66656504     0.20800
C2340       C  0.58099832  0.49714430  0.66616523    -0.02800
C2341       C  0.56796946  0.49160386  0.64082011    -0.05800
C2342       C  0.58259360  0.49501243  0.61613940     0.21100
C2343       C  0.54040765  0.48269323  0.64015565     0.19200
C2344       C  0.52632860  0.47900625  0.66497503    -0.17300
C2345       C  0.53947068  0.48396371  0.69016630    -0.19500
C2346       C  0.56682362  0.49309511  0.69102402     0.20700
C2347       C  0.58047778  0.49749012  0.71621734    -0.32500
C2348       C  0.60812214  0.50642123  0.71687327     0.01400
C2349       C  0.62161102  0.51065733  0.69161195    -0.23900
C2350       C  0.56969053  0.48952615  0.59108230    -0.28500
C2351       C  0.54199315  0.48152546  0.59003841     0.07100
C2352       C  0.52741694  0.47805418  0.61468876    -0.27100
H2353       H  0.62119827  0.50727571  0.59803354     0.11800
H2354       H  0.64370619  0.51695877  0.64193187     0.12900
H2355       H  0.50517713  0.47215323  0.66491788     0.12000
H2356       H  0.52821241  0.48066697  0.70899829     0.11300
H2357       H  0.56991979  0.49256456  0.73505812     0.16700
H2358       H  0.64306773  0.51653245  0.69154537     0.12600
H2359       H  0.58093411  0.49284733  0.57221584     0.15400
H2360       H  0.50598342  0.47213510  0.61400992     0.15200
C2361       C  0.72163922  0.42352021  0.71227069    -0.17700
C2362       C  0.70925202  0.44937381  0.71626759    -0.19800
C2363       C  0.68197517  0.45137707  0.72537511     0.20800
C2364       C  0.66690902  0.42698418  0.72975269    -0.02800
C2365       C  0.67925850  0.40094427  0.72541129    -0.05800
C2366       C  0.70693928  0.39908252  0.71702168     0.21100
C2367       C  0.66401524  0.37675545  0.73013033     0.19200
C2368       C  0.63658101  0.37859511  0.73850436    -0.17300
C2369       C  0.62440124  0.40427507  0.74267637    -0.19500
C2370       C  0.63947547  0.42851928  0.73860043     0.20700
C2371       C  0.62742671  0.45420578  0.74330121    -0.32500
C2372       C  0.64219686  0.47903010  0.73991528     0.01400
C2373       C  0.66948991  0.47723119  0.73010075    -0.23900
C2374       C  0.71956256  0.37289756  0.71463112    -0.28500
C2375       C  0.70464559  0.34883181  0.72074457     0.07100
C2376       C  0.67668943  0.35107482  0.72750544    -0.27100
H2377       H  0.74284590  0.42265554  0.70575782     0.11800
H2378       H  0.72117218  0.46783380  0.71260197     0.12900
H2379       H  0.62464647  0.36014310  0.74221641     0.12000
H2380       H  0.60324800  0.40516653  0.74938532     0.11300
H2381       H  0.60615295  0.45499244  0.74965504     0.16700
H2382       H  0.68087630  0.49573365  0.72536843     0.12600
H2383       H  0.74117295  0.37136042  0.70971235     0.15400
H2384       H  0.66504481  0.33261220  0.73214584     0.15200
C2385       C  0.79386108  0.30453547  0.93444732    -0.17700
C2386       C  0.79461219  0.29192847  0.90853165    -0.19800
C2387       C  0.77421933  0.29753958  0.88884243     0.20800
C2388       C  0.75291275  0.31611385  0.89551063    -0.02800
C2389       C  0.75223298  0.32886951  0.92156592    -0.05800
C2390       C  0.77274329  0.32306558  0.94117360     0.21100
C2391       C  0.73125189  0.34783014  0.92773783     0.19200
C2392       C  0.71089707  0.35365972  0.90815121    -0.17300
C2393       C  0.71134672  0.34082341  0.88257516    -0.19500
C2394       C  0.73231334  0.32215798  0.87607968     0.20700
C2395       C  0.73293166  0.30954664  0.85038320    -0.32500
C2396       C  0.75388281  0.29080767  0.84332612     0.01400
C2397       C  0.77465334  0.28499560  0.86268307    -0.23900
C2398       C  0.77197687  0.33619420  0.96693684    -0.28500
C2399       C  0.75105012  0.35537160  0.97352460     0.07100
C2400       C  0.73111311  0.36120455  0.95311542    -0.27100
H2401       H  0.80989051  0.29986909  0.94920512     0.11800
H2402       H  0.81116594  0.27778625  0.90389503     0.12900
H2403       H  0.69460888  0.36818284  0.91260705     0.12000
H2404       H  0.69537169  0.34563636  0.86779343     0.11300
H2405       H  0.71683490  0.31451527  0.83577287     0.16700
H2406       H  0.79088681  0.27065417  0.85752812     0.12600
H2407       H  0.78802521  0.33194801  0.98180694     0.15400
H2408       H  0.71574216  0.37694215  0.95611303     0.15200
C2409       C  0.60237823  0.19303391  0.82537307    -0.17700
C2410       C  0.57983655  0.19699227  0.84256820    -0.19800
C2411       C  0.56310432  0.22043329  0.83971595     0.20800
C2412       C  0.56874119  0.23982483  0.81914584    -0.02800
C2413       C  0.59176381  0.23606740  0.80202259    -0.05800
C2414       C  0.60883537  0.21266433  0.80532010     0.21100
C2415       C  0.59839508  0.25634492  0.78249085     0.19200
C2416       C  0.58148275  0.27962469  0.77954449    -0.17300
C2417       C  0.55844062  0.28309699  0.79626747    -0.19500
C2418       C  0.55202020  0.26345934  0.81636827     0.20700
C2419       C  0.52909534  0.26692512  0.83354571    -0.32500
C2420       C  0.52206750  0.24676850  0.85323786     0.01400
C2421       C  0.54088302  0.22467451  0.85722821    -0.23900
C2422       C  0.63300126  0.21026675  0.78982562    -0.28500
C2423       C  0.64061458  0.23143489  0.77182593     0.07100
C2424       C  0.62273498  0.25384361  0.76750113    -0.27100
H2425       H  0.61518420  0.17499210  0.82825946     0.11800
H2426       H  0.57554398  0.18173819  0.85821025     0.12900
H2427       H  0.58635346  0.29540731  0.76461605     0.12000
H2428       H  0.54583570  0.30132528  0.79370110     0.11300
H2429       H  0.51600473  0.28481290  0.83092637     0.16700
H2430       H  0.53872515  0.21024405  0.87390671     0.12600
H2431       H  0.64704519  0.19333157  0.79361545     0.15400
H2432       H  0.62880650  0.27033871  0.75378940     0.15200
C2433       C  0.89822379  0.28267324  0.63351213    -0.17700
C2434       C  0.87382135  0.28580097  0.64795079    -0.19800
C2435       C  0.87044834  0.27294788  0.67343890     0.20800
C2436       C  0.89177163  0.25657127  0.68444038    -0.02800
C2437       C  0.91669290  0.25374159  0.66993812    -0.05800
C2438       C  0.91978717  0.26697365  0.64452477     0.21100
C2439       C  0.93828698  0.23746459  0.68056364     0.19200
C2440       C  0.93429888  0.22359763  0.70557448    -0.17300
C2441       C  0.90948346  0.22631978  0.71999663    -0.19500
C2442       C  0.88810433  0.24294690  0.70970703     0.20700
C2443       C  0.86295292  0.24581428  0.72377571    -0.32500
C2444       C  0.84152437  0.26212576  0.71270453     0.01400
C2445       C  0.84580788  0.27582284  0.68769237    -0.23900
C2446       C  0.94453651  0.26488777  0.63055373    -0.28500
C2447       C  0.96786975  0.25177570  0.64221713     0.07100
C2448       C  0.96348699  0.23587043  0.66620551    -0.27100
H2449       H  0.90040063  0.29293413  0.61389140     0.11800
H2450       H  0.85754281  0.29823668  0.63913297     0.12900
H2451       H  0.95047419  0.21086959  0.71414271     0.12000
H2452       H  0.90705059  0.21546453  0.73925403     0.11300
H2453       H  0.85978329  0.23471577  0.74279230     0.16700
H2454       H  0.82954959  0.28821587  0.67874860     0.12600
H2455       H  0.94549312  0.27428733  0.61045119     0.15400
H2456       H  0.97981181  0.22292618  0.67411305     0.15200
C2457       C  0.74273849  0.12405528  0.59934846    -0.17700
C2458       C  0.73766431  0.13866065  0.62344639    -0.19800
C2459       C  0.73619334  0.16751505  0.62304874     0.20800
C2460       C  0.73985549  0.18186144  0.59817815    -0.02800
C2461       C  0.74445173  0.16701156  0.57367636    -0.05800
C2462       C  0.74602148  0.13805526  0.57441651     0.21100
C2463       C  0.74750617  0.18106907  0.54853784     0.19200
C2464       C  0.74662589  0.21002828  0.54836606    -0.17300
C2465       C  0.74260096  0.22481888  0.57278526    -0.19500
C2466       C  0.73911888  0.21094953  0.59784649     0.20700
C2467       C  0.73542099  0.22551075  0.62263642    -0.32500
C2468       C  0.73176772  0.21118102  0.64752553     0.01400
C2469       C  0.73172055  0.18218280  0.64728639    -0.23900
C2470       C  0.74983505  0.12338295  0.55011568    -0.28500
C2471       C  0.75000549  0.13674346  0.52431178     0.07100
C2472       C  0.75067854  0.16592192  0.52402850    -0.27100
H2473       H  0.74373291  0.10175921  0.60015112     0.11800
H2474       H  0.73504961  0.12738181  0.64244626     0.12900
H2475       H  0.74892461  0.22126332  0.52930607     0.12000
H2476       H  0.74211443  0.24712614  0.57204254     0.11300
H2477       H  0.73570646  0.24784241  0.62262653     0.16700
H2478       H  0.72947497  0.17085195  0.66632205     0.12600
H2479       H  0.75029115  0.10105036  0.55093777     0.15400
H2480       H  0.75326216  0.17706941  0.50504978     0.15200
C2481       C  0.93421281  0.04933150  0.64919344    -0.17700
C2482       C  0.91904973  0.05084807  0.67338600    -0.19800
C2483       C  0.91571070  0.02742635  0.68987624     0.20800
C2484       C  0.92860051  0.00248287  0.68238410    -0.02800
C2485       C  0.94358721  0.00081254  0.65769703    -0.05800
C2486       C  0.94606789  0.02430380  0.64098371     0.21100
C2487       C  0.95543085  0.97553602  0.64940295     0.19200
C2488       C  0.95309025  0.95247469  0.66662890    -0.17300
C2489       C  0.93876807  0.95431820  0.69145321    -0.19500
C2490       C  0.92613865  0.97913311  0.69928768     0.20700
C2491       C  0.91037595  0.98077706  0.72325567    -0.32500
C2492       C  0.89499246  0.00475597  0.72956990     0.01400
C2493       C  0.89914240  0.02844881  0.71330288    -0.23900
C2494       C  0.95951478  0.02224171  0.61584794    -0.28500
C2495       C  0.96995261  0.99682516  0.60642939     0.07100
C2496       C  0.96856086  0.97364313  0.62370713    -0.27100
H2497       H  0.93609290  0.06759206  0.63654299     0.11800
H2498       H  0.90951766  0.07023198  0.67893913     0.12900
H2499       H  0.96206631  0.93292286  0.66076435     0.12000
H2500       H  0.93701259  0.93613281  0.70422118     0.11300
H2501       H  0.90850741  0.96273888  0.73624321     0.16700
H2502       H  0.88970180  0.04786059  0.71868965     0.12600
H2503       H  0.96088096  0.04047246  0.60306129     0.15400
H2504       H  0.97665406  0.95404974  0.61677153     0.15200
C2505       C  0.96282351  0.04949706  0.83674267    -0.17700
C2506       C  0.94896279  0.04649194  0.81170534    -0.19800
C2507       C  0.93050060  0.02464057  0.80764132     0.20800
C2508       C  0.92647084  0.00521749  0.82863318    -0.02800
C2509       C  0.94007692  0.00849485  0.85408468    -0.05800
C2510       C  0.95823068  0.03087553  0.85825180     0.21100
C2511       C  0.93511088  0.98966831  0.87550481     0.19200
C2512       C  0.91755543  0.96717795  0.87099958    -0.17300
C2513       C  0.90454160  0.96364765  0.84558859    -0.19500
C2514       C  0.90845515  0.98282776  0.82440344     0.20700
C2515       C  0.89385785  0.98054406  0.79953638    -0.32500
C2516       C  0.89513969  0.00168934  0.77963744     0.01400
C2517       C  0.91506087  0.02267525  0.78343633    -0.23900
C2518       C  0.97116314  0.03434899  0.88391385    -0.28500
C2519       C  0.96550811  0.01607458  0.90544704     0.07100
C2520       C  0.94764113  0.99377758  0.90110100    -0.27100
H2521       H  0.97673675  0.06669386  0.83945525     0.11800
H2522       H  0.95235327  0.06153948  0.79565097     0.12900
H2523       H  0.91371554  0.95242040  0.88721686     0.12000
H2524       H  0.89081701  0.94631278  0.84276530     0.11300
H2525       H  0.88100074  0.96271324  0.79651126     0.16700
H2526       H  0.91718187  0.03870877  0.76811666     0.12600
H2527       H  0.98518959  0.05135285  0.88728411     0.15400
H2528       H  0.94370115  0.97946594  0.91772470     0.15200
C2529       C  0.82617557  0.11170305  0.80836424    -0.17700
C2530       C  0.84138441  0.08725777  0.80707890    -0.19800
C2531       C  0.84070579  0.07076628  0.78338703     0.20800
C2532       C  0.82405868  0.07860201  0.76106568    -0.02800
C2533       C  0.80818818  0.10295773  0.76259486    -0.05800
C2534       C  0.80961639  0.11985115  0.78617812     0.21100
C2535       C  0.79125307  0.11060706  0.74034702     0.19200
C2536       C  0.79032693  0.09392523  0.71682218    -0.17300
C2537       C  0.80625310  0.06996257  0.71524026    -0.19500
C2538       C  0.82327571  0.06216498  0.73720869     0.20700
C2539       C  0.83971067  0.03841214  0.73556923    -0.32500
C2540       C  0.85745656  0.03071782  0.75729710     0.01400
C2541       C  0.85655981  0.04670947  0.78169083    -0.23900
C2542       C  0.79493096  0.14482108  0.78689402    -0.28500
C2543       C  0.77822422  0.15269629  0.76463137     0.07100
C2544       C  0.77607374  0.13514003  0.74170753    -0.27100
H2545       H  0.82745880  0.12429540  0.82667930     0.11800
H2546       H  0.85406438  0.08148557  0.82447416     0.12900
H2547       H  0.77749599  0.09957591  0.69949853     0.12000
H2548       H  0.80536305  0.05759925  0.69674897     0.11300
H2549       H  0.83910572  0.02599855  0.71709157     0.16700
H2550       H  0.86789439  0.04066250  0.79980919     0.12600
H2551       H  0.79677789  0.15829554  0.80454443     0.15400
H2552       H  0.76363385  0.14128042  0.72424267     0.15200
C2553       C  0.70601393  0.55986669  0.78154656    -0.17700
C2554       C  0.71988012  0.58484284  0.78582201    -0.19800
C2555       C  0.70974542  0.60948583  0.77453584     0.20800
C2556       C  0.68558750  0.60873200  0.75839090    -0.02800
C2557       C  0.67203541  0.58343510  0.75350751    -0.05800
C2558       C  0.68203175  0.55893775  0.76545644     0.21100
C2559       C  0.64804022  0.58285024  0.73729604     0.19200
C2560       C  0.63780283  0.60739117  0.72595374    -0.17300
C2561       C  0.65100366  0.63242738  0.73099436    -0.19500
C2562       C  0.67472487  0.63331407  0.74737125     0.20700
C2563       C  0.68764697  0.65842078  0.75300136    -0.32500
C2564       C  0.71178361  0.65946510  0.76887667     0.01400
C2565       C  0.72309247  0.63487303  0.77922711    -0.23900
C2566       C  0.66760523  0.53410076  0.76154912    -0.28500
C2567       C  0.64398958  0.53292113  0.74458147     0.07100
C2568       C  0.63422468  0.55791584  0.73315115    -0.27100
H2569       H  0.71406816  0.54124627  0.79084679     0.11800
H2570       H  0.73834222  0.58493391  0.79828212     0.12900
H2571       H  0.61939186  0.60726845  0.71340569     0.12000
H2572       H  0.64255150  0.65113841  0.72222170     0.11300
H2573       H  0.67922936  0.67727380  0.74443091     0.16700
H2574       H  0.74184255  0.63559788  0.79124408     0.12600
H2575       H  0.67458730  0.51568352  0.77202366     0.15400
H2576       H  0.61512395  0.55835099  0.72173608     0.15200
C2577       C  0.73798505  0.63610502  0.61252034    -0.17700
C2578       C  0.74330982  0.64868941  0.63780178    -0.19800
C2579       C  0.75339395  0.67574771  0.63892392     0.20800
C2580       C  0.75784302  0.69038033  0.61431834    -0.02800
C2581       C  0.75256982  0.67757334  0.58872719    -0.05800
C2582       C  0.74271558  0.65031953  0.58790309     0.21100
C2583       C  0.75765032  0.69183773  0.56403835     0.19200
C2584       C  0.76757508  0.71899431  0.56524882    -0.17300
C2585       C  0.77224100  0.73190403  0.59059313    -0.19500
C2586       C  0.76749062  0.71778962  0.61527707     0.20700
C2587       C  0.77178198  0.73067423  0.64086100    -0.32500
C2588       C  0.76736295  0.71617182  0.66547271     0.01400
C2589       C  0.75860809  0.68855808  0.66423408    -0.23900
C2590       C  0.73843372  0.63739923  0.56253884    -0.28500
C2591       C  0.74362766  0.65107926  0.53743957     0.07100
C2592       C  0.75345161  0.67850511  0.53863981    -0.27100
H2593       H  0.73036745  0.61513436  0.61222069     0.11800
H2594       H  0.73955144  0.63723483  0.65649532     0.12900
H2595       H  0.77168742  0.73031006  0.54655373     0.12000
H2596       H  0.77969159  0.75293042  0.59087528     0.11300
H2597       H  0.77818917  0.75204575  0.64166309     0.16700
H2598       H  0.75446466  0.67744708  0.68307359     0.12600
H2599       H  0.73193986  0.61604036  0.56225568     0.15400
H2600       H  0.75921288  0.68914455  0.52004400     0.15200
C2601       C  0.56077527  0.79331056  0.69347512    -0.17700
C2602       C  0.58524620  0.79764821  0.70803806    -0.19800
C2603       C  0.60743720  0.77945552  0.70507242     0.20800
C2604       C  0.60479203  0.75659060  0.68724588    -0.02800
C2605       C  0.57999449  0.75210803  0.67273569    -0.05800
C2606       C  0.55797205  0.77061731  0.67578432     0.21100
C2607       C  0.57744728  0.72937162  0.65485788     0.19200
C2608       C  0.59960948  0.71112577  0.65187477    -0.17300
C2609       C  0.62414312  0.71552378  0.66621686    -0.19500
C2610       C  0.62698298  0.73827998  0.68376297     0.20700
C2611       C  0.65164584  0.74305995  0.69784299    -0.32500
C2612       C  0.65437700  0.76560561  0.71571114     0.01400
C2613       C  0.63220918  0.78367107  0.71950820    -0.23900
C2614       C  0.53366519  0.76638461  0.66082863    -0.28500
C2615       C  0.53060021  0.74375661  0.64271087     0.07100
C2616       C  0.55305799  0.72549102  0.63984662    -0.27100
H2617       H  0.54402748  0.80777337  0.69601084     0.11800
H2618       H  0.58685187  0.81531892  0.72153187     0.12900
H2619       H  0.59802985  0.69350900  0.63830365     0.12000
H2620       H  0.64097164  0.70119283  0.66346071     0.11300
H2621       H  0.66874261  0.72897663  0.69523414     0.16700
H2622       H  0.63434694  0.80096492  0.73342645     0.12600
H2623       H  0.51699418  0.78100863  0.66298148     0.15400
H2624       H  0.55226082  0.70869935  0.62530233     0.15200
C2625       C  0.83019190  0.92876668  0.69936083    -0.17700
C2626       C  0.81415926  0.90489464  0.69793114    -0.19800
C2627       C  0.79981284  0.89563493  0.72104483     0.20800
C2628       C  0.80072133  0.91135485  0.74547128    -0.02800
C2629       C  0.81699768  0.93540959  0.74691077    -0.05800
C2630       C  0.83227824  0.94370485  0.72397738     0.21100
C2631       C  0.81845308  0.95078320  0.77144837     0.19200
C2632       C  0.80287974  0.94242624  0.79412381    -0.17300
C2633       C  0.78710250  0.91834434  0.79288743    -0.19500
C2634       C  0.78637215  0.90239875  0.76883975     0.20700
C2635       C  0.77280712  0.87694259  0.76821438    -0.32500
C2636       C  0.77346148  0.86018541  0.74459009     0.01400
C2637       C  0.78587898  0.87024047  0.72065030    -0.23900
C2638       C  0.85004930  0.96626952  0.72617915    -0.28500
C2639       C  0.85417036  0.98023219  0.75149773     0.07100
C2640       C  0.83618306  0.97359855  0.77320727    -0.27100
H2641       H  0.84165196  0.93506734  0.68142539     0.11800
H2642       H  0.81360771  0.89325767  0.67896716     0.12900
H2643       H  0.80359549  0.95401778  0.81311076     0.12000
H2644       H  0.77601600  0.91181950  0.81097681     0.11300
H2645       H  0.76299900  0.86940785  0.78668027     0.16700
H2646       H  0.78654964  0.85740774  0.70245964     0.12600
H2647       H  0.86054483  0.97270617  0.70778386     0.15400
H2648       H  0.83702514  0.98545490  0.79203816     0.15200
C2649       C  0.69869559  0.86068692  0.91897012    -0.17700
C2650       C  0.69396591  0.84375419  0.89623360    -0.19800
C2651       C  0.71099493  0.82102437  0.89119652     0.20800
C2652       C  0.73264917  0.81499773  0.90968003    -0.02800
C2653       C  0.73710998  0.83186875  0.93292465    -0.05800
C2654       C  0.72026059  0.85492609  0.93732316     0.21100
C2655       C  0.75894733  0.82621018  0.95121299     0.19200
C2656       C  0.77628184  0.80372706  0.94592728    -0.17300
C2657       C  0.77221253  0.78728926  0.92262636    -0.19500
C2658       C  0.75055239  0.79284967  0.90432705     0.20700
C2659       C  0.74747773  0.77775326  0.87994614    -0.32500
C2660       C  0.72668805  0.78440228  0.86091801     0.01400
C2661       C  0.70786769  0.80534748  0.86712993    -0.23900
C2662       C  0.72513236  0.87194305  0.95997125    -0.28500
C2663       C  0.74509526  0.86521262  0.98026226     0.07100
C2664       C  0.76294410  0.84297312  0.97451149    -0.27100
H2665       H  0.68545115  0.87832827  0.92221025     0.11800
H2666       H  0.67736821  0.84881206  0.88224685     0.12900
H2667       H  0.79317069  0.79900727  0.95967665     0.12000
H2668       H  0.78622804  0.77040570  0.91874048     0.11300
H2669       H  0.76244898  0.76205940  0.87477578     0.16700
H2670       H  0.69246901  0.81111610  0.85205513     0.12600
H2671       H  0.71285903  0.89043573  0.96155298     0.15400
H2672       H  0.77944503  0.83816446  0.98867640     0.15200
C2673       C  0.91327949  0.79282890  0.86084185    -0.17700
C2674       C  0.88754482  0.79152254  0.84826457    -0.19800
C2675       C  0.88143402  0.77031219  0.82966680     0.20800
C2676       C  0.90142708  0.75035470  0.82342865    -0.02800
C2677       C  0.92763496  0.75188192  0.83596436    -0.05800
C2678       C  0.93342014  0.77308086  0.85486788     0.21100
C2679       C  0.94777433  0.73195058  0.83003324     0.19200
C2680       C  0.94147562  0.71066137  0.81148393    -0.17300
C2681       C  0.91543573  0.70907430  0.79910391    -0.19500
C2682       C  0.89514540  0.72878382  0.80494659     0.20700
C2683       C  0.86874792  0.72735343  0.79279158    -0.32500
C2684       C  0.84877704  0.74746418  0.79881603     0.01400
C2685       C  0.85554444  0.76876657  0.81738279    -0.23900
C2686       C  0.95895480  0.77398396  0.86806764    -0.28500
C2687       C  0.97979923  0.75449634  0.86226303     0.07100
C2688       C  0.97361131  0.73339458  0.84309864    -0.27100
H2689       H  0.91740404  0.80927468  0.87532159     0.11800
H2690       H  0.87233120  0.80701412  0.85324490     0.12900
H2691       H  0.95665448  0.69509337  0.80666956     0.12000
H2692       H  0.91115254  0.69235750  0.78499837     0.11300
H2693       H  0.86386501  0.71084979  0.77862157     0.16700
H2694       H  0.84047652  0.78432999  0.82261363     0.12600
H2695       H  0.96177986  0.78953636  0.88368141     0.15400
H2696       H  0.98885356  0.71772674  0.83880900     0.15200
loop_ 
_geom_bond_atom_site_label_1 
_geom_bond_atom_site_label_2 
_geom_bond_distance 
_geom_bond_site_symmetry_2 
_ccdc_geom_bond_type 
Zn1           O5   1.905       .  S
Zn1           O6   1.974       .  S
Zn1          O10   1.959       .  S
Zn1          O17   1.960       .  S
Zn2           O5   1.971       .  S
Zn2           O7   2.030       .  S
Zn2           O9   2.073       .  S
Zn2          O13   2.025       .  S
Zn3           O5   1.984       .  S
Zn3           O8   2.100       .  S
Zn3          O11   2.036       .  S
Zn3          O14   2.048       .  S
Zn4           O5   1.968       .  S
Zn4          O12   2.010       .  S
Zn4          O15   2.029       .  S
Zn4          O16   2.075       .  S
O6           C18   1.269       .  A
O7           C19   1.276       .  A
O8           C20   1.282       .  A
O9           C18   1.279       .  A
O10          C20   1.268       .  A
O11          C19   1.277       .  A
O12          C21   1.275       .  A
O13          C22   1.274       .  A
O14          C21   1.277       .  A
O15          C22   1.274       .  A
O16          C23   1.278       .  A
O17          C23   1.265       .  A
C18        C2636   1.481       .  S
C19        C2588   1.484       .  S
C20        C2684   1.494       .  S
C21        C2564   1.479       .  S
C22        C2612   1.472       .  S
C23        C2660   1.471       .  S
C24        C2492   1.554       .  S
C24        C2516   1.557       .  S
C24        C2540   1.560       .  S
C24        C2639   1.563   1_545  S
Zn25         O29   1.985       .  S
Zn25         O30   2.019       .  S
Zn25         O34   2.097       .  S
Zn25         O41   2.049       .  S
Zn26         O29   1.994       .  S
Zn26         O31   2.081       .  S
Zn26         O33   2.041       .  S
Zn26         O37   2.038       .  S
Zn27         O29   1.905       .  S
Zn27         O32   1.955       .  S
Zn27         O35   1.960       .  S
Zn27         O38   1.959       .  S
Zn28         O29   1.964       .  S
Zn28         O36   2.071       .  S
Zn28         O39   2.015       .  S
Zn28         O40   2.004       .  S
O30          C42   1.278       .  A
O31          C43   1.280       .  A
O32          C44   1.265       .  A
O33          C42   1.277       .  A
O34          C44   1.279       .  A
O35          C43   1.268       .  A
O36          C45   1.277       .  A
O37          C46   1.276       .  A
O38          C45   1.265       .  A
O39          C46   1.274       .  A
O40          C47   1.275       .  A
O41          C47   1.277       .  A
C42        C2444   1.490       .  S
C43        C2396   1.489       .  S
C44        C2375   1.484       .  S
C45        C2423   1.473       .  S
C46        C2543   1.482       .  S
C47        C2468   1.486       .  S
C48        C2324   1.554       .  S
C48        C2348   1.549       .  S
C48        C2372   1.557       .  S
C48        C2567   1.551       .  S
C49        C2252   1.553       .  S
C49        C2276   1.557       .  S
C49        C2300   1.555       .  S
C49        C2591   1.553       .  S
Zn50         O54   1.966       .  S
Zn50         O55   2.061       .  S
Zn50         O59   2.012       .  S
Zn50         O66   1.994       .  S
Zn51         O54   1.902       .  S
Zn51         O56   1.954       .  S
Zn51         O58   1.972       .  S
Zn51         O62   1.958       .  S
Zn52         O54   1.987       .  S
Zn52         O57   2.032       .  S
Zn52         O60   2.098       .  S
Zn52         O63   2.025       .  S
Zn53         O54   1.997       .  S
Zn53         O61   2.041       .  S
Zn53         O64   2.102       .  S
Zn53         O65   2.053       .  S
O55          C67   1.275       .  A
O56          C68   1.268       .  A
O57          C69   1.276       .  A
O58          C67   1.266       .  A
O59          C69   1.273       .  A
O60          C68   1.281       .  A
O61          C70   1.279       .  A
O62          C71   1.267       .  A
O63          C70   1.276       .  A
O64          C71   1.280       .  A
O65          C72   1.278       .  A
O66          C72   1.274       .  A
C67        C2204   1.472       .  S
C68        C2180   1.493       .  S
C69        C2132   1.485       .  S
C70        C2159   1.481       .  S
C71        C2303   1.493       .  S
C72        C2228   1.484       .  S
C73        C2087   1.560       .  S
C73        C2108   1.566       .  S
C73        C2135   1.558       .  S
C73        C2663   1.564   1_554  S
C74        C2012   1.553       .  S
C74        C2036   1.560       .  S
C74        C2060   1.551       .  S
C74        C2231   1.554       .  S
C75        C1916   1.562       .  S
C75        C1943   1.564   1_565  S
C75        C1964   1.557       .  S
C75        C1991   1.554       .  S
C76        C1847   1.559       .  S
C76        C1868   1.553   1_554  S
C76        C1895   1.559       .  S
C76        C2399   1.555   1_554  S
C77        C1748   1.553   1_554  S
C77        C1775   1.558       .  S
C77        C1799   1.555       .  S
C77        C1823   1.552       .  S
C78        C1655   1.561       .  S
C78        C1676   1.562       .  S
C78        C1700   1.559       .  S
C78        C1724   1.560       .  S
C79        C1580   1.562       .  S
C79        C1604   1.559       .  S
C79        C1631   1.558       .  S
C79        C2471   1.558       .  S
C80        C1508   1.566       .  S
C80        C1532   1.567       .  S
C80        C1556   1.563       .  S
C80        C2183   1.564   1_455  S
Zn81         O85   1.995       .  S
Zn81         O86   2.110       .  S
Zn81         O90   2.043       .  S
Zn81         O97   2.044       .  S
Zn82         O85   1.881       .  S
Zn82         O87   1.953       .  S
Zn82         O89   1.918       .  S
Zn82         O93   1.944       .  S
Zn83         O85   1.975       .  S
Zn83         O88   2.033       .  S
Zn83         O91   2.087       .  S
Zn83         O94   2.004       .  S
Zn84         O85   1.986       .  S
Zn84         O92   2.016       .  S
Zn84         O95   2.089       .  S
Zn84         O96   2.024       .  S
O86          C98   1.280       .  A
O87          C99   1.264       .  A
O88         C100   1.277       .  A
O89          C98   1.263       .  A
O90         C100   1.279       .  A
O91          C99   1.277       .  A
O92         C101   1.274       .  A
O93         C102   1.265       .  A
O94         C101   1.276       .  A
O95         C102   1.278       .  A
O96         C103   1.276       .  A
O97         C103   1.278       .  A
C98        C1460   1.491       .  S
C99        C1820   1.479       .  S
C100       C1511   1.492       .  S
C101       C1484   1.480       .  S
C102       C2015   1.487       .  S
C103       C1439   1.477       .  S
C104       C1367   1.558       .  S
C104       C1388   1.559       .  S
C104       C1415   1.553       .  S
C104       C1436   1.555       .  S
C105       C1295   1.570       .  S
C105       C1316   1.562       .  S
C105       C1340   1.563       .  S
C105       C2207   1.563       .  S
Zn106       O110   1.907       .  S
Zn106       O111   1.957       .  S
Zn106       O115   1.950       .  S
Zn106       O122   1.946       .  S
Zn107       O110   1.977       .  S
Zn107       O112   2.015       .  S
Zn107       O114   2.099       .  S
Zn107       O118   2.054       .  S
Zn108       O110   1.989       .  S
Zn108       O113   2.093       .  S
Zn108       O116   2.043       .  S
Zn108       O119   2.034       .  S
Zn109       O110   1.974       .  S
Zn109       O117   2.035       .  S
Zn109       O120   2.000       .  S
Zn109       O121   2.070       .  S
O111        C123   1.264       .  A
O112        C124   1.278       .  A
O113        C125   1.279       .  A
O114        C123   1.280       .  A
O115        C125   1.265       .  A
O116        C124   1.278       .  A
O117        C126   1.276       .  A
O118        C127   1.277       .  A
O119        C126   1.277       .  A
O120        C127   1.274       .  A
O121        C128   1.277       .  A
O122        C128   1.265       .  A
C123       C1343   1.477       .  S
C124       C1244   1.486       .  S
C125       C1844   1.478       .  S
C126       C1220   1.484       .  S
C127       C1583   1.488       .  S
C128       C1268   1.470       .  S
C129       C1175   1.554       .  S
C129       C1196   1.555       .  S
C129       C1223   1.565   1_565  S
C129       C2156   1.563       .  S
C130       C1100   1.569       .  S
C130       C1124   1.559       .  S
C130       C1151   1.559       .  S
C130       C2420   1.564       .  S
Zn131       O135   1.908       .  S
Zn131       O136   1.967       .  S
Zn131       O140   1.970       .  S
Zn131       O147   1.946       .  S
Zn132       O135   1.977       .  S
Zn132       O137   2.015       .  S
Zn132       O139   2.054       .  S
Zn132       O143   2.040       .  S
Zn133       O135   1.968       .  S
Zn133       O138   2.100       .  S
Zn133       O141   2.031       .  S
Zn133       O144   2.014       .  S
Zn134       O135   1.986       .  S
Zn134       O142   2.046       .  S
Zn134       O145   2.017       .  S
Zn134       O146   2.074       .  S
O136        C148   1.267       .  A
O137        C149   1.276       .  A
O138        C150   1.281       .  A
O139        C148   1.275       .  A
O140        C150   1.267       .  A
O141        C149   1.276       .  A
O142        C151   1.277       .  A
O143        C152   1.275       .  A
O144        C151   1.277       .  A
O145        C152   1.275       .  A
O146        C153   1.279       .  A
O147        C153   1.266       .  A
C148       C1148   1.465       .  S
C149       C1052   1.475       .  S
C150       C1940   1.485       .  S
C151       C1028   1.489       .  S
C152       C1679   1.485       .  S
C153       C1079   1.484       .  S
C154        C983   1.564       .  S
C154       C1004   1.565       .  S
C154       C1031   1.560   1_655  S
C154       C2447   1.565       .  S
C155        C911   1.561       .  S
C155        C932   1.565   1_655  S
C155        C959   1.567       .  S
C155       C1271   1.556       .  S
Zn156       O160   1.974   1_665  S
Zn156       O161   2.041       .  S
Zn156       O165   2.083   1_655  S
Zn156       O172   2.048   1_655  S
Zn157       O160   1.973   1_656  S
Zn157       O162   2.081   1_556  S
Zn157       O164   2.027   1_556  S
Zn157       O168   2.026       .  S
Zn158       O160   1.920       .  S
Zn158       O163   1.981       .  S
Zn158       O166   1.972       .  S
Zn158       O169   1.973       .  S
Zn159       O160   1.971   1_566  S
Zn159       O167   2.055   1_565  S
Zn159       O170   2.021   1_565  S
Zn159       O171   2.015       .  S
O161        C173   1.279       .  A
O162        C174   1.280       .  A
O163        C175   1.268   1_545  A
O164        C173   1.275   1_545  A
O165        C175   1.281       .  A
O166        C174   1.267   1_455  A
O167        C176   1.277       .  A
O168        C177   1.275       .  A
O169        C176   1.269   1_554  A
O170        C177   1.273   1_455  A
O171        C178   1.275       .  A
O172        C178   1.277   1_554  A
C173       C2111   1.491       .  S
C174        C956   1.477       .  S
C175        C887   1.480       .  S
C176        C860   1.475       .  S
C177       C2519   1.470       .  S
C178        C839   1.488       .  S
Zn179       O183   1.972       .  S
Zn179       O184   2.017       .  S
Zn179       O188   2.069       .  S
Zn179       O195   2.034       .  S
Zn180       O183   1.978       .  S
Zn180       O185   2.066       .  S
Zn180       O187   2.061       .  S
Zn180       O191   2.041       .  S
Zn181       O183   1.904       .  S
Zn181       O186   1.952       .  S
Zn181       O189   1.968       .  S
Zn181       O192   1.970       .  S
Zn182       O183   1.956       .  S
Zn182       O190   2.074       .  S
Zn182       O193   2.017       .  S
Zn182       O194   2.000       .  S
O184        C196   1.276       .  A
O185        C197   1.280       .  A
O186        C198   1.267       .  A
O187        C196   1.279       .  A
O188        C198   1.278       .  A
O189        C197   1.268       .  A
O190        C199   1.277       .  A
O191        C200   1.278       .  A
O192        C199   1.265       .  A
O193        C200   1.275       .  A
O194        C201   1.274       .  A
O195        C201   1.276       .  A
C196        C716   1.492       .  S
C197        C935   1.473       .  S
C198        C815   1.484       .  S
C199        C791   1.474       .  S
C200        C740   1.482       .  S
C201        C764   1.482       .  S
C202        C692   1.555       .  S
C202        C788   1.567   1_565  S
C202        C884   1.570       .  S
C202       C1487   1.557       .  S
Zn203       O207   1.911   1_655  S
Zn203       O208   1.966       .  S
Zn203       O212   1.953       .  S
Zn203       O219   1.962       .  S
Zn204       O207   1.979       .  S
Zn204       O209   2.052       .  S
Zn204       O211   2.084       .  S
Zn204       O215   2.025       .  S
Zn205       O207   1.979   1_565  S
Zn205       O210   2.085   1_455  S
Zn205       O213   2.034       .  S
Zn205       O216   2.037   1_455  S
Zn206       O207   1.979   1_665  S
Zn206       O214   2.019       .  S
Zn206       O217   2.028   1_665  S
Zn206       O218   2.072   1_565  S
O208        C220   1.265   1_655  A
O209        C221   1.277   1_545  A
O210        C222   1.281       .  A
O211        C220   1.279       .  A
O212        C222   1.268   1_545  A
O213        C221   1.276       .  A
O214        C223   1.274       .  A
O215        C224   1.278       .  A
O216        C223   1.276       .  A
O217        C224   1.276       .  A
O218        C225   1.276       .  A
O219        C225   1.265       .  A
C220       C1007   1.477       .  S
C221       C1391   1.488       .  S
C222       C2495   1.487       .  S
C223       C1559   1.471       .  S
C224        C695   1.484       .  S
C225       C1607   1.470       .  S
C226        C671   1.554       .  S
C226        C812   1.548       .  S
C226        C863   1.554   1_554  S
C226       C1076   1.549   1_554  S
Zn227       O231   1.982   1_565  S
Zn227       O232   2.018       .  S
Zn227       O236   2.099       .  S
Zn227       O243   2.042       .  S
Zn228       O231   1.990   1_554  S
Zn228       O233   2.073   1_554  S
Zn228       O235   2.036   1_554  S
Zn228       O239   2.031       .  S
Zn229       O231   1.896       .  S
Zn229       O234   1.944       .  S
Zn229       O237   1.947       .  S
Zn229       O240   1.964       .  S
Zn230       O231   1.964   1_564  S
Zn230       O238   2.068   1_565  S
Zn230       O241   2.010       .  S
Zn230       O242   1.995       .  S
O232        C244   1.277       .  A
O233        C245   1.278       .  A
O234        C246   1.265   1_545  A
O235        C244   1.275   1_545  A
O236        C246   1.280       .  A
O237        C245   1.266       .  A
O238        C247   1.277       .  A
O239        C248   1.275       .  A
O240        C247   1.267   1_556  A
O241        C248   1.272   1_565  A
O242        C249   1.272       .  A
O243        C249   1.277   1_556  A
C244       C2084   1.484       .  S
C245       C1127   1.471       .  S
C246       C1967   1.489       .  S
C247        C668   1.477       .  S
C248       C1199   1.469       .  S
C249       C2063   1.469       .  S
Zn250       O254   1.903   1_545  S
Zn250       O255   1.987       .  S
Zn250       O259   1.937       .  S
Zn250       O266   1.957       .  S
Zn251       O254   1.968   1_545  S
Zn251       O256   2.034   1_545  S
Zn251       O258   2.075       .  S
Zn251       O262   2.034       .  S
Zn252       O254   1.985       .  S
Zn252       O257   2.083       .  S
Zn252       O260   2.027       .  S
Zn252       O263   2.059       .  S
Zn253       O254   1.956       .  S
Zn253       O261   1.998       .  S
Zn253       O264   2.005       .  S
Zn253       O265   2.054       .  S
O255        C267   1.268       .  A
O256        C268   1.276       .  A
O257        C269   1.280       .  A
O258        C267   1.279       .  A
O259        C269   1.266   1_545  A
O260        C268   1.276       .  A
O261        C270   1.272       .  A
O262        C271   1.276       .  A
O263        C270   1.277       .  A
O264        C271   1.272   1_565  A
O265        C272   1.275   1_565  A
O266        C272   1.264       .  A
C267        C644   1.479       .  S
C268       C1412   1.477       .  S
C269       C1172   1.485       .  S
C270        C623   1.474       .  S
C271       C1988   1.465       .  S
C272       C1628   1.464       .  S
C273        C596   1.562       .  S
C273        C647   1.567       .  S
C273        C767   1.556       .  S
C273       C1247   1.566       .  S
Zn274       O278   1.896   1_655  S
Zn274       O279   1.932       .  S
Zn274       O283   1.938       .  S
Zn274       O290   1.947       .  S
Zn275       O278   1.993   1_656  S
Zn275       O280   2.044       .  S
Zn275       O282   2.103       .  S
Zn275       O286   2.035   1_655  S
Zn276       O278   1.982       .  S
Zn276       O281   2.101   1_455  S
Zn276       O284   2.050   1_454  S
Zn276       O287   2.037       .  S
Zn277       O278   1.984   1_556  S
Zn277       O285   2.044   1_556  S
Zn277       O288   2.019       .  S
Zn277       O289   2.083   1_556  S
O279        C291   1.264   1_554  A
O280        C292   1.279       .  A
O281        C293   1.280       .  A
O282        C291   1.279       .  A
O283        C293   1.263       .  A
O284        C292   1.278       .  A
O285        C294   1.277       .  A
O286        C295   1.276       .  A
O287        C294   1.278       .  A
O288        C295   1.277       .  A
O289        C296   1.277       .  A
O290        C296   1.263   1_655  A
C291       C1871   1.489       .  S
C292        C572   1.482       .  S
C293       C1319   1.476       .  S
C294       C1772   1.486       .  S
C295       C1727   1.484       .  S
C296        C908   1.473       .  S
Zn297       O301   1.914       .  S
Zn297       O302   1.955       .  S
Zn297       O306   1.962       .  S
Zn297       O313   1.984       .  S
Zn298       O301   1.978   1_554  S
Zn298       O303   2.021       .  S
Zn298       O305   2.069       .  S
Zn298       O309   2.031       .  S
Zn299       O301   1.987       .  S
Zn299       O304   2.105       .  S
Zn299       O307   2.058   1_556  S
Zn299       O310   2.034       .  S
Zn300       O301   1.976   1_554  S
Zn300       O308   2.028   1_554  S
Zn300       O311   2.025       .  S
Zn300       O312   2.068   1_554  S
O302        C314   1.265   1_556  A
O303        C315   1.276       .  A
O304        C316   1.282       .  A
O305        C314   1.276       .  A
O306        C316   1.269       .  A
O307        C315   1.279       .  A
O308        C317   1.275       .  A
O309        C318   1.276       .  A
O310        C317   1.277       .  A
O311        C318   1.276       .  A
O312        C319   1.278       .  A
O313        C319   1.267       .  A
C314       C1892   1.467       .  S
C315       C2039   1.489       .  S
C316       C2327   1.492       .  S
C317       C1796   1.482       .  S
C318        C548   1.483       .  S
C319       C1103   1.479       .  S
Zn320       O324   1.973       .  S
Zn320       O325   2.101       .  S
Zn320       O329   2.033       .  S
Zn320       O336   2.045       .  S
Zn321       O324   1.889   1_455  S
Zn321       O326   1.930       .  S
Zn321       O328   1.947   1_455  S
Zn321       O332   1.926       .  S
Zn322       O324   1.987   1_455  S
Zn322       O327   2.066   1_455  S
Zn322       O330   2.109       .  S
Zn322       O333   2.009       .  S
Zn323       O324   1.994       .  S
Zn323       O331   2.042   1_655  S
Zn323       O334   2.100   1_655  S
Zn323       O335   2.025       .  S
O325        C337   1.280       .  A
O326        C338   1.262       .  A
O327        C339   1.281       .  A
O328        C337   1.262       .  A
O329        C339   1.280       .  A
O330        C338   1.281       .  A
O331        C340   1.278       .  A
O332        C341   1.263       .  A
O333        C340   1.275       .  A
O334        C341   1.279       .  A
O335        C342   1.277       .  A
O336        C342   1.278       .  A
C337        C980   1.475       .  S
C338        C524   1.493       .  S
C339       C1292   1.497       .  S
C340       C1535   1.488       .  S
C341       C1703   1.492       .  S
C342       C2279   1.483       .  S
C343        C500   1.554       .  S
C343        C527   1.555       .  S
C343        C743   1.564       .  S
C343       C1055   1.564       .  S
Zn344       O348   1.987       .  S
Zn344       O349   2.033       .  S
Zn344       O353   2.094       .  S
Zn344       O360   2.024       .  S
Zn345       O348   1.981       .  S
Zn345       O350   2.079       .  S
Zn345       O352   2.016       .  S
Zn345       O356   2.029       .  S
Zn346       O348   1.884       .  S
Zn346       O351   1.921       .  S
Zn346       O354   1.939       .  S
Zn346       O357   1.942       .  S
Zn347       O348   1.971       .  S
Zn347       O355   2.089       .  S
Zn347       O358   2.011       .  S
Zn347       O359   2.039       .  S
O349        C361   1.276       .  A
O350        C362   1.277       .  A
O351        C363   1.263       .  A
O352        C361   1.275       .  A
O353        C363   1.278       .  A
O354        C362   1.264       .  A
O355        C364   1.278       .  A
O356        C365   1.276       .  A
O357        C364   1.263       .  A
O358        C365   1.276       .  A
O359        C366   1.277       .  A
O360        C366   1.276       .  A
C361        C455   1.485       .  S
C362        C503   1.487       .  S
C363        C479   1.483       .  S
C364        C599   1.472       .  S
C365       C2351   1.479       .  S
C366       C2255   1.477       .  S
C367        C476   1.552       .  S
C367        C551   1.559       .  S
C367        C719   1.558       .  S
C367       C1463   1.556       .  S
C368        C428   1.557       .  S
C368        C575   1.564       .  S
C368        C836   1.562       .  S
C368       C2687   1.557   1_455  S
Zn369       O373   1.995       .  S
Zn369       O374   2.044       .  S
Zn369       O378   2.037       .  S
Zn369       O385   2.095       .  S
Zn370       O373   1.966       .  S
Zn370       O375   2.004       .  S
Zn370       O377   2.007       .  S
Zn370       O381   2.081       .  S
Zn371       O373   1.999       .  S
Zn371       O376   2.027       .  S
Zn371       O379   2.066       .  S
Zn371       O382   2.109       .  S
Zn372       O373   1.891       .  S
Zn372       O380   1.936       .  S
Zn372       O383   1.965       .  S
Zn372       O384   1.956       .  S
O374        C386   1.278       .  A
O375        C387   1.274       .  A
O376        C388   1.278       .  A
O377        C386   1.274       .  A
O378        C388   1.277       .  A
O379        C387   1.278       .  A
O380        C389   1.265       .  A
O381        C390   1.277       .  A
O382        C389   1.281       .  A
O383        C390   1.267       .  A
O384        C391   1.265       .  A
O385        C391   1.278       .  A
C386       C1919   1.477       .  S
C387       C1364   1.488       .  S
C388        C404   1.481       .  S
C389       C1652   1.495       .  S
C390        C431   1.480       .  S
C391       C1751   1.483       .  S
C392        C407   1.555       .  S
C392        C452   1.558       .  S
C392        C620   1.557       .  S
C392       C2615   1.553       .  S
C393        C394   1.403       .  A
C393        C398   1.406       .  A
C393        H409   1.083       .  S
C394        C395   1.405       .  A
C394        H410   1.083       .  S
C395        C405   1.410       .  A
C395        C396   1.412       .  A
C396        C402   1.411       .  A
C396        C397   1.413       .  A
C397        C399   1.408       .  A
C397        C398   1.410       .  A
C398        C406   1.409       .  A
C399        C408   1.396       .  A
C399        C400   1.402       .  A
C400        C401   1.396       .  A
C400        H411   1.084       .  S
C401        C402   1.402       .  A
C401        H412   1.084       .  S
C402        C403   1.399       .  A
C403        C404   1.405       .  A
C403        H413   1.085       .  S
C404        C405   1.409       .  A
C405        H414   1.084       .  S
C406        C407   1.418       .  A
C406        H415   1.081       .  S
C407        C408   1.414       .  A
C408        H416   1.084       .  S
C417        C418   1.406       .  A
C417        C422   1.406       .  A
C417        H433   1.083       .  S
C418        C419   1.407       .  A
C418        H434   1.083       .  S
C419        C429   1.413       .  A
C419        C420   1.411       .  A
C420        C426   1.409       .  A
C420        C421   1.415       .  A
C421        C423   1.410       .  A
C421        C422   1.414       .  A
C422        C430   1.415       .  A
C423        C432   1.396       .  A
C423        C424   1.402       .  A
C424        C425   1.394       .  A
C424        H435   1.084       .  S
C425        C426   1.402       .  A
C425        H436   1.084       .  S
C426        C427   1.396       .  A
C427        C428   1.413       .  A
C427        H437   1.085       .  S
C428        C429   1.418       .  A
C429        H438   1.081       .  S
C430        C431   1.409       .  A
C430        H439   1.084       .  S
C431        C432   1.405       .  A
C432        H440   1.085       .  S
C441        C442   1.401       .  A
C441        C446   1.404       .  A
C441        H457   1.083       .  S
C442        C443   1.405       .  A
C442        H458   1.084       .  S
C443        C453   1.406       .  A
C443        C444   1.409       .  A
C444        C450   1.408       .  A
C444        C445   1.414       .  A
C445        C447   1.410       .  A
C445        C446   1.412       .  A
C446        C454   1.407       .  A
C447        C456   1.402       .  A
C447        C448   1.403       .  A
C448        C449   1.398       .  A
C448        H459   1.084       .  S
C449        C450   1.403       .  A
C449        H460   1.084       .  S
C450        C451   1.401       .  A
C451        C452   1.416       .  A
C451        H461   1.084       .  S
C452        C453   1.418       .  A
C453        H462   1.079       .  S
C454        C455   1.409       .  A
C454        H463   1.084       .  S
C455        C456   1.409       .  A
C456        H464   1.084       .  S
C465        C466   1.392       .  A
C465        C470   1.402       .  A
C465        H481   1.084       .  S
C466        C467   1.401       .  A
C466        H482   1.084       .  S
C467        C477   1.396       .  A
C467        C468   1.411       .  A
C468        C474   1.407       .  A
C468        C469   1.412       .  A
C469        C471   1.416       .  A
C469        C470   1.406       .  A
C470        C478   1.388       .  A
C471        C480   1.416       .  A
C471        C472   1.405       .  A
C472        C473   1.405       .  A
C472        H483   1.083       .  S
C473        C474   1.407       .  A
C473        H484   1.083       .  S
C474        C475   1.407       .  A
C475        C476   1.420       .  A
C475        H485   1.084       .  S
C476        C477   1.412       .  A
C477        H486   1.081       .  S
C478        C479   1.409       .  A
C478        H487   1.085       .  S
C479        C480   1.408       .  A
C480        H488   1.084       .  S
C489        C490   1.395       .  A
C489        C494   1.403       .  A
C489        H505   1.084       .  S
C490        C491   1.402       .  A
C490        H506   1.084       .  S
C491        C501   1.401       .  A
C491        C492   1.412       .  A
C492        C498   1.406       .  A
C492        C493   1.412       .  A
C493        C495   1.415       .  A
C493        C494   1.406       .  A
C494        C502   1.393       .  A
C495        C504   1.412       .  A
C495        C496   1.404       .  A
C496        C497   1.403       .  A
C496        H507   1.083       .  S
C497        C498   1.406       .  A
C497        H508   1.083       .  S
C498        C499   1.404       .  A
C499        C500   1.419       .  A
C499        H509   1.084       .  S
C500        C501   1.411       .  A
C501        H510   1.080       .  S
C502        C503   1.412       .  A
C502        H511   1.084       .  S
C503        C504   1.407       .  A
C504        H512   1.084       .  S
C513        C514   1.397       .  A
C513        C518   1.402       .  A
C513        H529   1.084       .  S
C514        C515   1.405       .  A
C514        H530   1.084       .  S
C515        C525   1.395       .  A
C515        C516   1.405       .  A
C516        C522   1.416       .  A
C516        C517   1.413       .  A
C517        C519   1.406       .  A
C517        C518   1.413       .  A
C518        C526   1.403       .  A
C519        C528   1.403       .  A
C519        C520   1.406       .  A
C520        C521   1.403       .  A
C520        H531   1.083       .  S
C521        C522   1.404       .  A
C521        H532   1.083       .  S
C522        C523   1.414       .  A
C523        C524   1.407       .  A
C523        H533   1.084       .  S
C524        C525   1.415       .  A
C525        H534   1.084       .  S
C526        C527   1.411       .  A
C526        H535   1.080       .  S
C527        C528   1.419       .  A
C528        H536   1.084       .  S
C537        C538   1.398       .  A
C537        C542   1.403       .  A
C537        H553   1.084       .  S
C538        C539   1.403       .  A
C538        H554   1.084       .  S
C539        C549   1.402       .  A
C539        C540   1.411       .  A
C540        C546   1.412       .  A
C540        C541   1.414       .  A
C541        C543   1.409       .  A
C541        C542   1.409       .  A
C542        C550   1.401       .  A
C543        C552   1.407       .  A
C543        C544   1.405       .  A
C544        C545   1.401       .  A
C544        H555   1.084       .  S
C545        C546   1.404       .  A
C545        H556   1.083       .  S
C546        C547   1.408       .  A
C547        C548   1.408       .  A
C547        H557   1.084       .  S
C548        C549   1.407       .  A
C549        H558   1.084       .  S
C550        C551   1.415       .  A
C550        H559   1.084       .  S
C551        C552   1.418       .  A
C552        H560   1.080       .  S
C561        C562   1.406       .  A
C561        C566   1.407       .  A
C561        H577   1.083       .  S
C562        C563   1.406       .  A
C562        H578   1.083       .  S
C563        C573   1.416       .  A
C563        C564   1.413       .  A
C564        C570   1.411   1_655  A
C564        C565   1.418       .  A
C565        C567   1.408   1_655  A
C565        C566   1.410       .  A
C566        C574   1.414       .  A
C567        C576   1.401       .  A
C567        C568   1.404       .  A
C568        C569   1.397       .  A
C568        H579   1.084       .  S
C569        C570   1.402       .  A
C569        H580   1.084       .  S
C570        C571   1.402       .  A
C571        C572   1.404   1_455  A
C571        H581   1.085       .  S
C572        C573   1.409       .  A
C573        H582   1.084       .  S
C574        C575   1.419   1_655  A
C574        H583   1.084       .  S
C575        C576   1.419       .  A
C576        H584   1.081       .  S
C585        C586   1.396       .  A
C585        C590   1.402       .  A
C585        H601   1.084       .  S
C586        C587   1.403       .  A
C586        H602   1.084       .  S
C587        C597   1.396       .  A
C587        C588   1.407       .  A
C588        C594   1.412       .  A
C588        C589   1.414       .  A
C589        C591   1.412       .  A
C589        C590   1.411       .  A
C590        C598   1.399       .  A
C591        C600   1.412       .  A
C591        C592   1.405       .  A
C592        C593   1.404       .  A
C592        H603   1.083       .  S
C593        C594   1.406       .  A
C593        H604   1.083       .  S
C594        C595   1.413       .  A
C595        C596   1.415       .  A
C595        H605   1.079       .  S
C596        C597   1.418       .  A
C597        H606   1.084       .  S
C598        C599   1.405       .  A
C598        H607   1.085       .  S
C599        C600   1.407       .  A
C600        H608   1.084       .  S
C609        C610   1.395       .  A
C609        C614   1.402       .  A
C609        H625   1.084       .  S
C610        C611   1.403       .  A
C610        H626   1.084       .  S
C611        C621   1.399       .  A
C611        C612   1.409       .  A
C612        C618   1.408       .  A
C612        C613   1.414       .  A
C613        C615   1.415       .  A
C613        C614   1.410       .  A
C614        C622   1.396       .  A
C615        C624   1.414       .  A
C615        C616   1.405       .  A
C616        C617   1.404       .  A
C616        H627   1.083       .  S
C617        C618   1.406       .  A
C617        H628   1.083       .  S
C618        C619   1.409       .  A
C619        C620   1.418       .  A
C619        H629   1.084       .  S
C620        C621   1.415       .  A
C621        H630   1.081       .  S
C622        C623   1.403       .  A
C622        H631   1.085       .  S
C623        C624   1.406       .  A
C624        H632   1.084       .  S
C633        C634   1.397       .  A
C633        C638   1.405       .  A
C633        H649   1.084       .  S
C634        C635   1.401       .  A
C634        H650   1.084       .  S
C635        C645   1.405       .  A
C635        C636   1.415       .  A
C636        C642   1.409       .  A
C636        C637   1.416       .  A
C637        C639   1.413       .  A
C637        C638   1.403       .  A
C638        C646   1.396       .  A
C639        C648   1.415       .  A
C639        C640   1.405       .  A
C640        C641   1.405       .  A
C640        H651   1.083       .  S
C641        C642   1.406       .  A
C641        H652   1.083       .  S
C642        C643   1.409       .  A
C643        C644   1.411       .  A
C643        H653   1.084       .  S
C644        C645   1.402       .  A
C645        H654   1.085       .  S
C646        C647   1.423       .  A
C646        H655   1.081       .  S
C647        C648   1.416       .  A
C648        H656   1.083       .  S
C657        C658   1.400       .  A
C657        C662   1.405       .  A
C657        H673   1.084       .  S
C658        C659   1.403       .  A
C658        H674   1.083       .  S
C659        C669   1.408       .  A
C659        C660   1.414       .  A
C660        C666   1.409   1_554  A
C660        C661   1.412       .  A
C661        C663   1.411   1_554  A
C661        C662   1.406       .  A
C662        C670   1.401       .  A
C663        C672   1.402       .  A
C663        C664   1.403       .  A
C664        C665   1.398       .  A
C664        H675   1.084       .  S
C665        C666   1.404       .  A
C665        H676   1.084       .  S
C666        C667   1.399       .  A
C667        C668   1.408   1_556  A
C667        H677   1.085       .  S
C668        C669   1.404       .  A
C669        H678   1.084       .  S
C670        C671   1.419       .  A
C670        H679   1.081       .  S
C671        C672   1.413   1_554  A
C672        H680   1.084       .  S
C681        C682   1.394       .  A
C681        C686   1.401       .  A
C681        H697   1.084       .  S
C682        C683   1.402   1_545  A
C682        H698   1.084   1_545  S
C683        C693   1.392       .  A
C683        C684   1.406       .  A
C684        C690   1.413       .  A
C684        C685   1.413   1_565  A
C685        C687   1.411       .  A
C685        C686   1.411       .  A
C686        C694   1.398       .  A
C687        C696   1.410       .  A
C687        C688   1.406   1_545  A
C688        C689   1.405       .  A
C688        H699   1.083   1_465  S
C689        C690   1.406       .  A
C689        H700   1.083       .  S
C690        C691   1.413       .  A
C691        C692   1.415       .  A
C691        H701   1.080       .  S
C692        C693   1.416       .  A
C693        H702   1.085       .  S
C694        C695   1.405       .  A
C694        H703   1.084       .  S
C695        C696   1.411       .  A
C696        H704   1.084       .  S
C705        C706   1.396       .  A
C705        C710   1.402       .  A
C705        H721   1.084       .  S
C706        C707   1.403       .  A
C706        H722   1.084       .  S
C707        C717   1.400       .  A
C707        C708   1.410       .  A
C708        C714   1.412       .  A
C708        C709   1.416       .  A
C709        C711   1.411       .  A
C709        C710   1.408       .  A
C710        C718   1.397       .  A
C711        C720   1.412       .  A
C711        C712   1.406       .  A
C712        C713   1.405       .  A
C712        H723   1.083       .  S
C713        C714   1.406       .  A
C713        H724   1.083       .  S
C714        C715   1.413       .  A
C715        C716   1.412       .  A
C715        H725   1.084       .  S
C716        C717   1.409       .  A
C717        H726   1.084       .  S
C718        C719   1.415       .  A
C718        H727   1.084       .  S
C719        C720   1.418       .  A
C720        H728   1.080       .  S
C729        C730   1.400       .  A
C729        C734   1.405       .  A
C729        H745   1.084       .  S
C730        C731   1.403       .  A
C730        H746   1.084       .  S
C731        C741   1.407       .  A
C731        C732   1.413       .  A
C732        C738   1.409       .  A
C732        C733   1.414       .  A
C733        C735   1.410       .  A
C733        C734   1.406       .  A
C734        C742   1.401       .  A
C735        C744   1.406       .  A
C735        C736   1.403       .  A
C736        C737   1.400       .  A
C736        H747   1.083       .  S
C737        C738   1.404       .  A
C737        H748   1.084       .  S
C738        C739   1.403       .  A
C739        C740   1.408       .  A
C739        H749   1.084       .  S
C740        C741   1.406       .  A
C741        H750   1.084       .  S
C742        C743   1.421       .  A
C742        H751   1.078       .  S
C743        C744   1.416       .  A
C744        H752   1.084       .  S
C753        C754   1.395       .  A
C753        C758   1.402       .  A
C753        H769   1.084       .  S
C754        C755   1.402       .  A
C754        H770   1.084       .  S
C755        C765   1.397       .  A
C755        C756   1.410       .  A
C756        C762   1.411       .  A
C756        C757   1.412       .  A
C757        C759   1.411       .  A
C757        C758   1.407       .  A
C758        C766   1.394       .  A
C759        C768   1.410       .  A
C759        C760   1.405       .  A
C760        C761   1.403       .  A
C760        H771   1.083       .  S
C761        C762   1.405       .  A
C761        H772   1.083       .  S
C762        C763   1.409       .  A
C763        C764   1.409       .  A
C763        H773   1.084       .  S
C764        C765   1.407       .  A
C765        H774   1.084       .  S
C766        C767   1.415       .  A
C766        H775   1.085       .  S
C767        C768   1.415       .  A
C768        H776   1.079       .  S
C777        C778   1.397       .  A
C777        C782   1.401       .  A
C777        H793   1.084       .  S
C778        C779   1.405       .  A
C778        H794   1.084       .  S
C779        C789   1.394       .  A
C779        C780   1.403       .  A
C780        C786   1.413       .  A
C780        C781   1.414       .  A
C781        C783   1.408       .  A
C781        C782   1.416       .  A
C782        C790   1.405       .  A
C783        C792   1.406       .  A
C783        C784   1.406       .  A
C784        C785   1.403       .  A
C784        H795   1.083       .  S
C785        C786   1.404       .  A
C785        H796   1.083       .  S
C786        C787   1.414       .  A
C787        C788   1.414       .  A
C787        H797   1.084       .  S
C788        C789   1.423       .  A
C789        H798   1.081       .  S
C790        C791   1.402       .  A
C790        H799   1.085       .  S
C791        C792   1.409       .  A
C792        H800   1.084       .  S
C801        C802   1.402       .  A
C801        C806   1.404       .  A
C801        H817   1.083       .  S
C802        C803   1.405       .  A
C802        H818   1.083       .  S
C803        C813   1.403       .  A
C803        C804   1.407       .  A
C804        C810   1.412       .  A
C804        C805   1.411       .  A
C805        C807   1.407       .  A
C805        C806   1.414       .  A
C806        C814   1.410       .  A
C807        C816   1.394       .  A
C807        C808   1.403       .  A
C808        C809   1.395       .  A
C808        H819   1.084       .  S
C809        C810   1.401       .  A
C809        H820   1.084       .  S
C810        C811   1.400       .  A
C811        C812   1.410       .  A
C811        H821   1.081       .  S
C812        C813   1.417       .  A
C813        H822   1.084       .  S
C814        C815   1.407       .  A
C814        H823   1.084       .  S
C815        C816   1.410       .  A
C816        H824   1.084       .  S
C825        C826   1.404       .  A
C825        C830   1.405       .  A
C825        H841   1.083   1_556  S
C826        C827   1.406       .  A
C826        H842   1.083       .  S
C827        C837   1.413       .  A
C827        C828   1.412       .  A
C828        C834   1.406       .  A
C828        C829   1.415       .  A
C829        C831   1.411       .  A
C829        C830   1.411       .  A
C830        C838   1.411       .  A
C831        C840   1.401       .  A
C831        C832   1.403       .  A
C832        C833   1.397       .  A
C832        H843   1.084       .  S
C833        C834   1.403       .  A
C833        H844   1.084       .  S
C834        C835   1.397       .  A
C835        C836   1.418       .  A
C835        H845   1.084       .  S
C836        C837   1.417       .  A
C837        H846   1.079       .  S
C838        C839   1.410       .  A
C838        H847   1.084   1_556  S
C839        C840   1.408       .  A
C840        H848   1.084       .  S
C849        C850   1.398       .  A
C849        C854   1.402       .  A
C849        H865   1.084       .  S
C850        C851   1.403       .  A
C850        H866   1.084       .  S
C851        C861   1.398       .  A
C851        C852   1.409   1_554  A
C852        C858   1.414       .  A
C852        C853   1.411       .  A
C853        C855   1.407       .  A
C853        C854   1.410   1_556  A
C854        C862   1.401       .  A
C855        C864   1.401       .  A
C855        C856   1.405       .  A
C856        C857   1.400       .  A
C856        H867   1.084       .  S
C857        C858   1.403       .  A
C857        H868   1.083       .  S
C858        C859   1.407       .  A
C859        C860   1.404       .  A
C859        H869   1.084       .  S
C860        C861   1.407   1_556  A
C861        H870   1.085       .  S
C862        C863   1.413   1_554  A
C862        H871   1.084       .  S
C863        C864   1.419       .  A
C864        H872   1.081       .  S
C873        C874   1.404       .  A
C873        C878   1.407       .  A
C873        H889   1.083       .  S
C874        C875   1.405       .  A
C874        H890   1.083       .  S
C875        C885   1.415       .  A
C875        C876   1.413   1_545  A
C876        C882   1.402       .  A
C876        C877   1.416       .  A
C877        C879   1.415       .  A
C877        C878   1.408   1_565  A
C878        C886   1.408       .  A
C879        C888   1.406       .  A
C879        C880   1.402       .  A
C880        C881   1.398       .  A
C880        H891   1.084       .  S
C881        C882   1.405       .  A
C881        H892   1.084       .  S
C882        C883   1.396       .  A
C883        C884   1.424       .  A
C883        H893   1.079       .  S
C884        C885   1.416   1_565  A
C885        H894   1.084       .  S
C886        C887   1.411   1_545  A
C886        H895   1.084       .  S
C887        C888   1.403       .  A
C888        H896   1.084       .  S
C897        C898   1.396       .  A
C897        C902   1.403   1_455  A
C897        H913   1.084   1_455  S
C898        C899   1.403       .  A
C898        H914   1.084       .  S
C899        C909   1.399       .  A
C899        C900   1.410       .  A
C900        C906   1.413       .  A
C900        C901   1.413       .  A
C901        C903   1.410   1_455  A
C901        C902   1.408   1_455  A
C902        C910   1.397       .  A
C903        C912   1.409       .  A
C903        C904   1.405   1_655  A
C904        C905   1.403       .  A
C904        H915   1.083       .  S
C905        C906   1.405       .  A
C905        H916   1.083       .  S
C906        C907   1.410       .  A
C907        C908   1.406       .  A
C907        H917   1.084       .  S
C908        C909   1.405       .  A
C909        H918   1.085       .  S
C910        C911   1.417       .  A
C910        H919   1.085       .  S
C911        C912   1.415       .  A
C912        H920   1.079       .  S
C921        C922   1.395       .  A
C921        C926   1.400       .  A
C921        H937   1.084       .  S
C922        C923   1.404       .  A
C922        H938   1.084       .  S
C923        C933   1.392       .  A
C923        C924   1.402       .  A
C924        C930   1.413       .  A
C924        C925   1.412       .  A
C925        C927   1.408       .  A
C925        C926   1.415       .  A
C926        C934   1.402       .  A
C927        C936   1.404       .  A
C927        C928   1.406       .  A
C928        C929   1.403       .  A
C928        H939   1.083       .  S
C929        C930   1.404       .  A
C929        H940   1.083       .  S
C930        C931   1.413       .  A
C931        C932   1.415       .  A
C931        H941   1.084       .  S
C932        C933   1.422       .  A
C933        H942   1.079       .  S
C934        C935   1.401       .  A
C934        H943   1.085       .  S
C935        C936   1.410       .  A
C936        H944   1.084       .  S
C945        C946   1.398       .  A
C945        C950   1.405       .  A
C945        H961   1.084       .  S
C946        C947   1.402       .  A
C946        H962   1.084       .  S
C947        C957   1.407       .  A
C947        C948   1.415       .  A
C948        C954   1.409   1_655  A
C948        C949   1.415       .  A
C949        C951   1.412   1_655  A
C949        C950   1.404       .  A
C950        C958   1.398       .  A
C951        C960   1.411       .  A
C951        C952   1.404       .  A
C952        C953   1.402       .  A
C952        H963   1.083       .  S
C953        C954   1.405       .  A
C953        H964   1.083       .  S
C954        C955   1.405       .  A
C955        C956   1.409   1_455  A
C955        H965   1.085       .  S
C956        C957   1.403       .  A
C957        H966   1.084       .  S
C958        C959   1.424       .  A
C958        H967   1.079       .  S
C959        C960   1.415   1_655  A
C960        H968   1.084       .  S
C969        C970   1.398       .  A
C969        C974   1.403       .  A
C969        H985   1.084       .  S
C970        C971   1.403       .  A
C970        H986   1.084       .  S
C971        C981   1.402       .  A
C971        C972   1.411       .  A
C972        C978   1.412       .  A
C972        C973   1.416       .  A
C973        C975   1.411       .  A
C973        C974   1.408       .  A
C974        C982   1.400       .  A
C975        C984   1.412       .  A
C975        C976   1.406       .  A
C976        C977   1.404       .  A
C976        H987   1.083       .  S
C977        C978   1.405       .  A
C977        H988   1.083       .  S
C978        C979   1.413       .  A
C979        C980   1.408       .  A
C979        H989   1.084       .  S
C980        C981   1.406       .  A
C981        H990   1.085       .  S
C982        C983   1.417       .  A
C982        H991   1.085       .  S
C983        C984   1.416       .  A
C984        H992   1.080   1_655  S
C993        C994   1.402       .  A
C993        C998   1.405       .  A
C993       H1009   1.083       .  S
C994        C995   1.404       .  A
C994       H1010   1.083       .  S
C995       C1005   1.411       .  A
C995        C996   1.412   1_655  A
C996       C1002   1.404       .  A
C996        C997   1.415       .  A
C997        C999   1.415       .  A
C997        C998   1.409   1_455  A
C998       C1006   1.405       .  A
C999       C1008   1.407       .  A
C999       C1000   1.403       .  A
C1000      C1001   1.399       .  A
C1000      H1011   1.084       .  S
C1001      C1002   1.405       .  A
C1001      H1012   1.084       .  S
C1002      C1003   1.398       .  A
C1003      C1004   1.422   1_455  A
C1003      H1013   1.081       .  S
C1004      C1005   1.414       .  A
C1005      H1014   1.083       .  S
C1006      C1007   1.409   1_655  A
C1006      H1015   1.085       .  S
C1007      C1008   1.404       .  A
C1008      H1016   1.084       .  S
C1017      C1018   1.395       .  A
C1017      C1022   1.402       .  A
C1017      H1033   1.084       .  S
C1018      C1019   1.402       .  A
C1018      H1034   1.084       .  S
C1019      C1029   1.398       .  A
C1019      C1020   1.410       .  A
C1020      C1026   1.411       .  A
C1020      C1021   1.415       .  A
C1021      C1023   1.412       .  A
C1021      C1022   1.407       .  A
C1022      C1030   1.395       .  A
C1023      C1032   1.416       .  A
C1023      C1024   1.407       .  A
C1024      C1025   1.406       .  A
C1024      H1035   1.083       .  S
C1025      C1026   1.407       .  A
C1025      H1036   1.083       .  S
C1026      C1027   1.414       .  A
C1027      C1028   1.412       .  A
C1027      H1037   1.084       .  S
C1028      C1029   1.408       .  A
C1029      H1038   1.084       .  S
C1030      C1031   1.416       .  A
C1030      H1039   1.085       .  S
C1031      C1032   1.417       .  A
C1032      H1040   1.079       .  S
C1041      C1042   1.396       .  A
C1041      C1046   1.404       .  A
C1041      H1057   1.084       .  S
C1042      C1043   1.401       .  A
C1042      H1058   1.084       .  S
C1043      C1053   1.401       .  A
C1043      C1044   1.413       .  A
C1044      C1050   1.410       .  A
C1044      C1045   1.413       .  A
C1045      C1047   1.411       .  A
C1045      C1046   1.405       .  A
C1046      C1054   1.396       .  A
C1047      C1056   1.410       .  A
C1047      C1048   1.405       .  A
C1048      C1049   1.403       .  A
C1048      H1059   1.083       .  S
C1049      C1050   1.406       .  A
C1049      H1060   1.084       .  S
C1050      C1051   1.407       .  A
C1051      C1052   1.409       .  A
C1051      H1061   1.084       .  S
C1052      C1053   1.402       .  A
C1053      H1062   1.085       .  S
C1054      C1055   1.420       .  A
C1054      H1063   1.079       .  S
C1055      C1056   1.417       .  A
C1056      H1064   1.084       .  S
C1065      C1066   1.396       .  A
C1065      C1070   1.404       .  A
C1065      H1081   1.084       .  S
C1066      C1067   1.402       .  A
C1066      H1082   1.084       .  S
C1067      C1077   1.402       .  A
C1067      C1068   1.412       .  A
C1068      C1074   1.406       .  A
C1068      C1069   1.411       .  A
C1069      C1071   1.415       .  A
C1069      C1070   1.406       .  A
C1070      C1078   1.394       .  A
C1071      C1080   1.410       .  A
C1071      C1072   1.403       .  A
C1072      C1073   1.401       .  A
C1072      H1083   1.083       .  S
C1073      C1074   1.405       .  A
C1073      H1084   1.083       .  S
C1074      C1075   1.401       .  A
C1075      C1076   1.417       .  A
C1075      H1085   1.084       .  S
C1076      C1077   1.410       .  A
C1077      H1086   1.081       .  S
C1078      C1079   1.412       .  A
C1078      H1087   1.084       .  S
C1079      C1080   1.406       .  A
C1080      H1088   1.084       .  S
C1089      C1090   1.403       .  A
C1089      C1094   1.406       .  A
C1089      H1105   1.083       .  S
C1090      C1091   1.405       .  A
C1090      H1106   1.083       .  S
C1091      C1101   1.413       .  A
C1091      C1092   1.412       .  A
C1092      C1098   1.403       .  A
C1092      C1093   1.415       .  A
C1093      C1095   1.415       .  A
C1093      C1094   1.408       .  A
C1094      C1102   1.406       .  A
C1095      C1104   1.405       .  A
C1095      C1096   1.401       .  A
C1096      C1097   1.397       .  A
C1096      H1107   1.084       .  S
C1097      C1098   1.405       .  A
C1097      H1108   1.084       .  S
C1098      C1099   1.397       .  A
C1099      C1100   1.423       .  A
C1099      H1109   1.078       .  S
C1100      C1101   1.416       .  A
C1101      H1110   1.084       .  S
C1102      C1103   1.411       .  A
C1102      H1111   1.084       .  S
C1103      C1104   1.402       .  A
C1104      H1112   1.084       .  S
C1113      C1114   1.404       .  A
C1113      C1118   1.405       .  A
C1113      H1129   1.083       .  S
C1114      C1115   1.406       .  A
C1114      H1130   1.083       .  S
C1115      C1125   1.410       .  A
C1115      C1116   1.409       .  A
C1116      C1122   1.408       .  A
C1116      C1117   1.412       .  A
C1117      C1119   1.409       .  A
C1117      C1118   1.415       .  A
C1118      C1126   1.413       .  A
C1119      C1128   1.393       .  A
C1119      C1120   1.402       .  A
C1120      C1121   1.394       .  A
C1120      H1131   1.084       .  S
C1121      C1122   1.402       .  A
C1121      H1132   1.084       .  S
C1122      C1123   1.395       .  A
C1123      C1124   1.416       .  A
C1123      H1133   1.084       .  S
C1124      C1125   1.417       .  A
C1125      H1134   1.078       .  S
C1126      C1127   1.405       .  A
C1126      H1135   1.084       .  S
C1127      C1128   1.404       .  A
C1128      H1136   1.086       .  S
C1137      C1138   1.403       .  A
C1137      C1142   1.406       .  A
C1137      H1153   1.083       .  S
C1138      C1139   1.405       .  A
C1138      H1154   1.083       .  S
C1139      C1149   1.411       .  A
C1139      C1140   1.414       .  A
C1140      C1146   1.410       .  A
C1140      C1141   1.412       .  A
C1141      C1143   1.409       .  A
C1141      C1142   1.409       .  A
C1142      C1150   1.408       .  A
C1143      C1152   1.396       .  A
C1143      C1144   1.402       .  A
C1144      C1145   1.394       .  A
C1144      H1155   1.084       .  S
C1145      C1146   1.402       .  A
C1145      H1156   1.084       .  S
C1146      C1147   1.394       .  A
C1147      C1148   1.401       .  A
C1147      H1157   1.086       .  S
C1148      C1149   1.405       .  A
C1149      H1158   1.084       .  S
C1150      C1151   1.418       .  A
C1150      H1159   1.078       .  S
C1151      C1152   1.415       .  A
C1152      H1160   1.085       .  S
C1161      C1162   1.402       .  A
C1161      C1166   1.406       .  A
C1161      H1177   1.083       .  S
C1162      C1163   1.404       .  A
C1162      H1178   1.083       .  S
C1163      C1173   1.411       .  A
C1163      C1164   1.415       .  A
C1164      C1170   1.405   1_565  A
C1164      C1165   1.411       .  A
C1165      C1167   1.413   1_565  A
C1165      C1166   1.405       .  A
C1166      C1174   1.401       .  A
C1167      C1176   1.401       .  A
C1167      C1168   1.401       .  A
C1168      C1169   1.395       .  A
C1168      H1179   1.084       .  S
C1169      C1170   1.403       .  A
C1169      H1180   1.084       .  S
C1170      C1171   1.392       .  A
C1171      C1172   1.412   1_545  A
C1171      H1181   1.084       .  S
C1172      C1173   1.407       .  A
C1173      H1182   1.084       .  S
C1174      C1175   1.420       .  A
C1174      H1183   1.084       .  S
C1175      C1176   1.409   1_565  A
C1176      H1184   1.080       .  S
C1185      C1186   1.402       .  A
C1185      C1190   1.405       .  A
C1185      H1201   1.083       .  S
C1186      C1187   1.404       .  A
C1186      H1202   1.083       .  S
C1187      C1197   1.412       .  A
C1187      C1188   1.414       .  A
C1188      C1194   1.405   1_565  A
C1188      C1189   1.413   1_565  A
C1189      C1191   1.416       .  A
C1189      C1190   1.409   1_545  A
C1190      C1198   1.403       .  A
C1191      C1200   1.406       .  A
C1191      C1192   1.402       .  A
C1192      C1193   1.398       .  A
C1192      H1203   1.084       .  S
C1193      C1194   1.404       .  A
C1193      H1204   1.084       .  S
C1194      C1195   1.396       .  A
C1195      C1196   1.418   1_545  A
C1195      H1205   1.085       .  S
C1196      C1197   1.413       .  A
C1197      H1206   1.081       .  S
C1198      C1199   1.407   1_565  A
C1198      H1207   1.085       .  S
C1199      C1200   1.400       .  A
C1200      H1208   1.084       .  S
C1209      C1210   1.398       .  A
C1209      C1214   1.404       .  A
C1209      H1225   1.084       .  S
C1210      C1211   1.402       .  A
C1210      H1226   1.084       .  S
C1211      C1221   1.404       .  A
C1211      C1212   1.413       .  A
C1212      C1218   1.410       .  A
C1212      C1213   1.415       .  A
C1213      C1215   1.411       .  A
C1213      C1214   1.406       .  A
C1214      C1222   1.399       .  A
C1215      C1224   1.411       .  A
C1215      C1216   1.405       .  A
C1216      C1217   1.404       .  A
C1216      H1227   1.083       .  S
C1217      C1218   1.406       .  A
C1217      H1228   1.083       .  S
C1218      C1219   1.409       .  A
C1219      C1220   1.411       .  A
C1219      H1229   1.084       .  S
C1220      C1221   1.405       .  A
C1221      H1230   1.084       .  S
C1222      C1223   1.420       .  A
C1222      H1231   1.081       .  S
C1223      C1224   1.417       .  A
C1224      H1232   1.084       .  S
C1233      C1234   1.406       .  A
C1233      C1238   1.406       .  A
C1233      H1249   1.083       .  S
C1234      C1235   1.407       .  A
C1234      H1250   1.083       .  S
C1235      C1245   1.412       .  A
C1235      C1236   1.410       .  A
C1236      C1242   1.412       .  A
C1236      C1237   1.413       .  A
C1237      C1239   1.403       .  A
C1237      C1238   1.412       .  A
C1238      C1246   1.417       .  A
C1239      C1248   1.390       .  A
C1239      C1240   1.403       .  A
C1240      C1241   1.393       .  A
C1240      H1251   1.084       .  S
C1241      C1242   1.400       .  A
C1241      H1252   1.084       .  S
C1242      C1243   1.397       .  A
C1243      C1244   1.404       .  A
C1243      H1253   1.084       .  S
C1244      C1245   1.413       .  A
C1245      H1254   1.084       .  S
C1246      C1247   1.417       .  A
C1246      H1255   1.084       .  S
C1247      C1248   1.420       .  A
C1248      H1256   1.081       .  S
C1257      C1258   1.392       .  A
C1257      C1262   1.401       .  A
C1257      H1273   1.084       .  S
C1258      C1259   1.401       .  A
C1258      H1274   1.084       .  S
C1259      C1269   1.392       .  A
C1259      C1260   1.410       .  A
C1260      C1266   1.414       .  A
C1260      C1261   1.411       .  A
C1261      C1263   1.410       .  A
C1261      C1262   1.408       .  A
C1262      C1270   1.392       .  A
C1263      C1272   1.412       .  A
C1263      C1264   1.407       .  A
C1264      C1265   1.405       .  A
C1264      H1275   1.083       .  S
C1265      C1266   1.406       .  A
C1265      H1276   1.083       .  S
C1266      C1267   1.413       .  A
C1267      C1268   1.407       .  A
C1267      H1277   1.084       .  S
C1268      C1269   1.402       .  A
C1269      H1278   1.086       .  S
C1270      C1271   1.414       .  A
C1270      H1279   1.085       .  S
C1271      C1272   1.418       .  A
C1272      H1280   1.078       .  S
C1281      C1282   1.396       .  A
C1281      C1286   1.403       .  A
C1281      H1297   1.084       .  S
C1282      C1283   1.402       .  A
C1282      H1298   1.084       .  S
C1283      C1293   1.402       .  A
C1283      C1284   1.411       .  A
C1284      C1290   1.410       .  A
C1284      C1285   1.417       .  A
C1285      C1287   1.411       .  A
C1285      C1286   1.405       .  A
C1286      C1294   1.397       .  A
C1287      C1296   1.417       .  A
C1287      C1288   1.406       .  A
C1288      C1289   1.407       .  A
C1288      H1299   1.083       .  S
C1289      C1290   1.408       .  A
C1289      H1300   1.083       .  S
C1290      C1291   1.416       .  A
C1291      C1292   1.415       .  A
C1291      H1301   1.084       .  S
C1292      C1293   1.408       .  A
C1293      H1302   1.084       .  S
C1294      C1295   1.421       .  A
C1294      H1303   1.082       .  S
C1295      C1296   1.418       .  A
C1296      H1304   1.083       .  S
C1305      C1306   1.396       .  A
C1305      C1310   1.402       .  A
C1305      H1321   1.084       .  S
C1306      C1307   1.402       .  A
C1306      H1322   1.084       .  S
C1307      C1317   1.397       .  A
C1307      C1308   1.408       .  A
C1308      C1314   1.411       .  A
C1308      C1309   1.415       .  A
C1309      C1311   1.413       .  A
C1309      C1310   1.410       .  A
C1310      C1318   1.398       .  A
C1311      C1320   1.414       .  A
C1311      C1312   1.406       .  A
C1312      C1313   1.406       .  A
C1312      H1323   1.083       .  S
C1313      C1314   1.406       .  A
C1313      H1324   1.083       .  S
C1314      C1315   1.414       .  A
C1315      C1316   1.417       .  A
C1315      H1325   1.078       .  S
C1316      C1317   1.417       .  A
C1317      H1326   1.084       .  S
C1318      C1319   1.405       .  A
C1318      H1327   1.085       .  S
C1319      C1320   1.409       .  A
C1320      H1328   1.084       .  S
C1329      C1330   1.398       .  A
C1329      C1334   1.403       .  A
C1329      H1345   1.084       .  S
C1330      C1331   1.403       .  A
C1330      H1346   1.084       .  S
C1331      C1341   1.400       .  A
C1331      C1332   1.409       .  A
C1332      C1338   1.411       .  A
C1332      C1333   1.417       .  A
C1333      C1335   1.412       .  A
C1333      C1334   1.411       .  A
C1334      C1342   1.402       .  A
C1335      C1344   1.414       .  A
C1335      C1336   1.406       .  A
C1336      C1337   1.405       .  A
C1336      H1347   1.083       .  S
C1337      C1338   1.406       .  A
C1337      H1348   1.083       .  S
C1338      C1339   1.413       .  A
C1339      C1340   1.418       .  A
C1339      H1349   1.081       .  S
C1340      C1341   1.415       .  A
C1341      H1350   1.085       .  S
C1342      C1343   1.405       .  A
C1342      H1351   1.085       .  S
C1343      C1344   1.409       .  A
C1344      H1352   1.084       .  S
C1353      C1354   1.397       .  A
C1353      C1358   1.403       .  A
C1353      H1369   1.084       .  S
C1354      C1355   1.403       .  A
C1354      H1370   1.084       .  S
C1355      C1365   1.399       .  A
C1355      C1356   1.409       .  A
C1356      C1362   1.414       .  A
C1356      C1357   1.416       .  A
C1357      C1359   1.409       .  A
C1357      C1358   1.409       .  A
C1358      C1366   1.401       .  A
C1359      C1368   1.412       .  A
C1359      C1360   1.407       .  A
C1360      C1361   1.405       .  A
C1360      H1371   1.083       .  S
C1361      C1362   1.405       .  A
C1361      H1372   1.083       .  S
C1362      C1363   1.415       .  A
C1363      C1364   1.410       .  A
C1363      H1373   1.084       .  S
C1364      C1365   1.408       .  A
C1365      H1374   1.085       .  S
C1366      C1367   1.413       .  A
C1366      H1375   1.084       .  S
C1367      C1368   1.419       .  A
C1368      H1376   1.081       .  S
C1377      C1378   1.399       .  A
C1377      C1382   1.404       .  A
C1377      H1393   1.084       .  S
C1378      C1379   1.404       .  A
C1378      H1394   1.084       .  S
C1379      C1389   1.404       .  A
C1379      C1380   1.409       .  A
C1380      C1386   1.410       .  A
C1380      C1381   1.418       .  A
C1381      C1383   1.413       .  A
C1381      C1382   1.411       .  A
C1382      C1390   1.404       .  A
C1383      C1392   1.414       .  A
C1383      C1384   1.405       .  A
C1384      C1385   1.405       .  A
C1384      H1395   1.083       .  S
C1385      C1386   1.406       .  A
C1385      H1396   1.083       .  S
C1386      C1387   1.412       .  A
C1387      C1388   1.419       .  A
C1387      H1397   1.081       .  S
C1388      C1389   1.415       .  A
C1389      H1398   1.084       .  S
C1390      C1391   1.408       .  A
C1390      H1399   1.085       .  S
C1391      C1392   1.409       .  A
C1392      H1400   1.084       .  S
C1401      C1402   1.397       .  A
C1401      C1406   1.403       .  A
C1401      H1417   1.084       .  S
C1402      C1403   1.402       .  A
C1402      H1418   1.084       .  S
C1403      C1413   1.400       .  A
C1403      C1404   1.411       .  A
C1404      C1410   1.413       .  A
C1404      C1405   1.414       .  A
C1405      C1407   1.409       .  A
C1405      C1406   1.408       .  A
C1406      C1414   1.401       .  A
C1407      C1416   1.408       .  A
C1407      C1408   1.406       .  A
C1408      C1409   1.403       .  A
C1408      H1419   1.083       .  S
C1409      C1410   1.405       .  A
C1409      H1420   1.083       .  S
C1410      C1411   1.411       .  A
C1411      C1412   1.407       .  A
C1411      H1421   1.084       .  S
C1412      C1413   1.405       .  A
C1413      H1422   1.085       .  S
C1414      C1415   1.416       .  A
C1414      H1423   1.083       .  S
C1415      C1416   1.418       .  A
C1416      H1424   1.083       .  S
C1425      C1426   1.400       .  A
C1425      C1430   1.404       .  A
C1425      H1441   1.084       .  S
C1426      C1427   1.404       .  A
C1426      H1442   1.084       .  S
C1427      C1437   1.405       .  A
C1427      C1428   1.410       .  A
C1428      C1434   1.407       .  A
C1428      C1429   1.415       .  A
C1429      C1431   1.414       .  A
C1429      C1430   1.410       .  A
C1430      C1438   1.403       .  A
C1431      C1440   1.409       .  A
C1431      C1432   1.404       .  A
C1432      C1433   1.401       .  A
C1432      H1443   1.083       .  S
C1433      C1434   1.405       .  A
C1433      H1444   1.084       .  S
C1434      C1435   1.404       .  A
C1435      C1436   1.418       .  A
C1435      H1445   1.082       .  S
C1436      C1437   1.417       .  A
C1437      H1446   1.082       .  S
C1438      C1439   1.407       .  A
C1438      H1447   1.085       .  S
C1439      C1440   1.405       .  A
C1440      H1448   1.084       .  S
C1449      C1450   1.392       .  A
C1449      C1454   1.401       .  A
C1449      H1465   1.084       .  S
C1450      C1451   1.402       .  A
C1450      H1466   1.084       .  S
C1451      C1461   1.389       .  A
C1451      C1452   1.405       .  A
C1452      C1458   1.416       .  A
C1452      C1453   1.414       .  A
C1453      C1455   1.406       .  A
C1453      C1454   1.411       .  A
C1454      C1462   1.397       .  A
C1455      C1464   1.410       .  A
C1455      C1456   1.408       .  A
C1456      C1457   1.407       .  A
C1456      H1467   1.083       .  S
C1457      C1458   1.406       .  A
C1457      H1468   1.083       .  S
C1458      C1459   1.419       .  A
C1459      C1460   1.410       .  A
C1459      H1469   1.083       .  S
C1460      C1461   1.412       .  A
C1461      H1470   1.084       .  S
C1462      C1463   1.413       .  A
C1462      H1471   1.080       .  S
C1463      C1464   1.422       .  A
C1464      H1472   1.084       .  S
C1473      C1474   1.394       .  A
C1473      C1478   1.402       .  A
C1473      H1489   1.084       .  S
C1474      C1475   1.402       .  A
C1474      H1490   1.084       .  S
C1475      C1485   1.396       .  A
C1475      C1476   1.411       .  A
C1476      C1482   1.411       .  A
C1476      C1477   1.410       .  A
C1477      C1479   1.411       .  A
C1477      C1478   1.407       .  A
C1478      C1486   1.394       .  A
C1479      C1488   1.409       .  A
C1479      C1480   1.405       .  A
C1480      C1481   1.403       .  A
C1480      H1491   1.083       .  S
C1481      C1482   1.405       .  A
C1481      H1492   1.083       .  S
C1482      C1483   1.407       .  A
C1483      C1484   1.410       .  A
C1483      H1493   1.084       .  S
C1484      C1485   1.406       .  A
C1485      H1494   1.084       .  S
C1486      C1487   1.415       .  A
C1486      H1495   1.085       .  S
C1487      C1488   1.415       .  A
C1488      H1496   1.079       .  S
C1497      C1498   1.399       .  A
C1497      C1502   1.404       .  A
C1497      H1513   1.084       .  S
C1498      C1499   1.404       .  A
C1498      H1514   1.084       .  S
C1499      C1509   1.401       .  A
C1499      C1500   1.407       .  A
C1500      C1506   1.410       .  A
C1500      C1501   1.416       .  A
C1501      C1503   1.411       .  A
C1501      C1502   1.411       .  A
C1502      C1510   1.405       .  A
C1503      C1512   1.408       .  A
C1503      C1504   1.405       .  A
C1504      C1505   1.402       .  A
C1504      H1515   1.083       .  S
C1505      C1506   1.405       .  A
C1505      H1516   1.084       .  S
C1506      C1507   1.408       .  A
C1507      C1508   1.418       .  A
C1507      H1517   1.078       .  S
C1508      C1509   1.419       .  A
C1509      H1518   1.084       .  S
C1510      C1511   1.409       .  A
C1510      H1519   1.084       .  S
C1511      C1512   1.411       .  A
C1512      H1520   1.084       .  S
C1521      C1522   1.402       .  A
C1521      C1526   1.404       .  A
C1521      H1537   1.083   1_455  S
C1522      C1523   1.406       .  A
C1522      H1538   1.083   1_455  S
C1523      C1533   1.408       .  A
C1523      C1524   1.409       .  A
C1524      C1530   1.407       .  A
C1524      C1525   1.414       .  A
C1525      C1527   1.410       .  A
C1525      C1526   1.411       .  A
C1526      C1534   1.408       .  A
C1527      C1536   1.401       .  A
C1527      C1528   1.403       .  A
C1528      C1529   1.397       .  A
C1528      H1539   1.084       .  S
C1529      C1530   1.403       .  A
C1529      H1540   1.084       .  S
C1530      C1531   1.399       .  A
C1531      C1532   1.419       .  A
C1531      H1541   1.084       .  S
C1532      C1533   1.419       .  A
C1533      H1542   1.078       .  S
C1534      C1535   1.410       .  A
C1534      H1543   1.084       .  S
C1535      C1536   1.409       .  A
C1536      H1544   1.084       .  S
C1545      C1546   1.404       .  A
C1545      C1550   1.405       .  A
C1545      H1561   1.083       .  S
C1546      C1547   1.406       .  A
C1546      H1562   1.083       .  S
C1547      C1557   1.408       .  A
C1547      C1548   1.408   1_655  A
C1548      C1554   1.409       .  A
C1548      C1549   1.414   1_455  A
C1549      C1551   1.411   1_655  A
C1549      C1550   1.414       .  A
C1550      C1558   1.412       .  A
C1551      C1560   1.398       .  A
C1551      C1552   1.402       .  A
C1552      C1553   1.396       .  A
C1552      H1563   1.084       .  S
C1553      C1554   1.404       .  A
C1553      H1564   1.084       .  S
C1554      C1555   1.401       .  A
C1555      C1556   1.416       .  A
C1555      H1565   1.078       .  S
C1556      C1557   1.420   1_455  A
C1557      H1566   1.084       .  S
C1558      C1559   1.406       .  A
C1558      H1567   1.084       .  S
C1559      C1560   1.402   1_655  A
C1560      H1568   1.085       .  S
C1569      C1570   1.405       .  A
C1569      C1574   1.406       .  A
C1569      H1585   1.083       .  S
C1570      C1571   1.405       .  A
C1570      H1586   1.083       .  S
C1571      C1581   1.413       .  A
C1571      C1572   1.411       .  A
C1572      C1578   1.406       .  A
C1572      C1573   1.414       .  A
C1573      C1575   1.411       .  A
C1573      C1574   1.411       .  A
C1574      C1582   1.412       .  A
C1575      C1584   1.399       .  A
C1575      C1576   1.402       .  A
C1576      C1577   1.395       .  A
C1576      H1587   1.084       .  S
C1577      C1578   1.403       .  A
C1577      H1588   1.084       .  S
C1578      C1579   1.395       .  A
C1579      C1580   1.419       .  A
C1579      H1589   1.081       .  S
C1580      C1581   1.416       .  A
C1581      H1590   1.084       .  S
C1582      C1583   1.412       .  A
C1582      H1591   1.084       .  S
C1583      C1584   1.407       .  A
C1584      H1592   1.084       .  S
C1593      C1594   1.404       .  A
C1593      C1598   1.405       .  A
C1593      H1609   1.083   1_545  S
C1594      C1595   1.406       .  A
C1594      H1610   1.083       .  S
C1595      C1605   1.411       .  A
C1595      C1596   1.411       .  A
C1596      C1602   1.408       .  A
C1596      C1597   1.413       .  A
C1597      C1599   1.411       .  A
C1597      C1598   1.413       .  A
C1598      C1606   1.412       .  A
C1599      C1608   1.397       .  A
C1599      C1600   1.402       .  A
C1600      C1601   1.395       .  A
C1600      H1611   1.084       .  S
C1601      C1602   1.402       .  A
C1601      H1612   1.084       .  S
C1602      C1603   1.395       .  A
C1603      C1604   1.414       .  A
C1603      H1613   1.085       .  S
C1604      C1605   1.417       .  A
C1605      H1614   1.080       .  S
C1606      C1607   1.407       .  A
C1606      H1615   1.084   1_545  S
C1607      C1608   1.402       .  A
C1608      H1616   1.085       .  S
C1617      C1618   1.402       .  A
C1617      C1622   1.405       .  A
C1617      H1633   1.083       .  S
C1618      C1619   1.405       .  A
C1618      H1634   1.083       .  S
C1619      C1629   1.405       .  A
C1619      C1620   1.410       .  A
C1620      C1626   1.414       .  A
C1620      C1621   1.412       .  A
C1621      C1623   1.405       .  A
C1621      C1622   1.412       .  A
C1622      C1630   1.410       .  A
C1623      C1632   1.394       .  A
C1623      C1624   1.404       .  A
C1624      C1625   1.395       .  A
C1624      H1635   1.084       .  S
C1625      C1626   1.401       .  A
C1625      H1636   1.084       .  S
C1626      C1627   1.400       .  A
C1627      C1628   1.400       .  A
C1627      H1637   1.085       .  S
C1628      C1629   1.407       .  A
C1629      H1638   1.085   1_545  S
C1630      C1631   1.414       .  A
C1630      H1639   1.084       .  S
C1631      C1632   1.419       .  A
C1632      H1640   1.081       .  S
C1641      C1642   1.408       .  A
C1641      C1646   1.408       .  A
C1641      H1657   1.083       .  S
C1642      C1643   1.407       .  A
C1642      H1658   1.083       .  S
C1643      C1653   1.420       .  A
C1643      C1644   1.415       .  A
C1644      C1650   1.406       .  A
C1644      C1645   1.414       .  A
C1645      C1647   1.409       .  A
C1645      C1646   1.408       .  A
C1646      C1654   1.413       .  A
C1647      C1656   1.394       .  A
C1647      C1648   1.401       .  A
C1648      C1649   1.391       .  A
C1648      H1659   1.084       .  S
C1649      C1650   1.401       .  A
C1649      H1660   1.084       .  S
C1650      C1651   1.389       .  A
C1651      C1652   1.412       .  A
C1651      H1661   1.084       .  S
C1652      C1653   1.412       .  A
C1653      H1662   1.083       .  S
C1654      C1655   1.421       .  A
C1654      H1663   1.084       .  S
C1655      C1656   1.414       .  A
C1656      H1664   1.078       .  S
C1665      C1666   1.396       .  A
C1665      C1670   1.402       .  A
C1665      H1681   1.084       .  S
C1666      C1667   1.403       .  A
C1666      H1682   1.084       .  S
C1667      C1677   1.397       .  A
C1667      C1668   1.407       .  A
C1668      C1674   1.410       .  A
C1668      C1669   1.414       .  A
C1669      C1671   1.412       .  A
C1669      C1670   1.411       .  A
C1670      C1678   1.400       .  A
C1671      C1680   1.410       .  A
C1671      C1672   1.405       .  A
C1672      C1673   1.403       .  A
C1672      H1683   1.083       .  S
C1673      C1674   1.406       .  A
C1673      H1684   1.083       .  S
C1674      C1675   1.411       .  A
C1675      C1676   1.418       .  A
C1675      H1685   1.080       .  S
C1676      C1677   1.417       .  A
C1677      H1686   1.085       .  S
C1678      C1679   1.407       .  A
C1678      H1687   1.084       .  S
C1679      C1680   1.410       .  A
C1680      H1688   1.084       .  S
C1689      C1690   1.406       .  A
C1689      C1694   1.406       .  A
C1689      H1705   1.083       .  S
C1690      C1691   1.407       .  A
C1690      H1706   1.083       .  S
C1691      C1701   1.410       .  A
C1691      C1692   1.407       .  A
C1692      C1698   1.409       .  A
C1692      C1693   1.413       .  A
C1693      C1695   1.405       .  A
C1693      C1694   1.415       .  A
C1694      C1702   1.417       .  A
C1695      C1704   1.390       .  A
C1695      C1696   1.402       .  A
C1696      C1697   1.392       .  A
C1696      H1707   1.084       .  S
C1697      C1698   1.402       .  A
C1697      H1708   1.084       .  S
C1698      C1699   1.397       .  A
C1699      C1700   1.414       .  A
C1699      H1709   1.078       .  S
C1700      C1701   1.421       .  A
C1701      H1710   1.084       .  S
C1702      C1703   1.410       .  A
C1702      H1711   1.083       .  S
C1703      C1704   1.412       .  A
C1704      H1712   1.084       .  S
C1713      C1714   1.403       .  A
C1713      C1718   1.405       .  A
C1713      H1729   1.083   1_455  S
C1714      C1715   1.406       .  A
C1714      H1730   1.083       .  S
C1715      C1725   1.409       .  A
C1715      C1716   1.410       .  A
C1716      C1722   1.407       .  A
C1716      C1717   1.413       .  A
C1717      C1719   1.411       .  A
C1717      C1718   1.411       .  A
C1718      C1726   1.409       .  A
C1719      C1728   1.399       .  A
C1719      C1720   1.402       .  A
C1720      C1721   1.396       .  A
C1720      H1731   1.084       .  S
C1721      C1722   1.402       .  A
C1721      H1732   1.084       .  S
C1722      C1723   1.396       .  A
C1723      C1724   1.416       .  A
C1723      H1733   1.085       .  S
C1724      C1725   1.418       .  A
C1725      H1734   1.080       .  S
C1726      C1727   1.410       .  A
C1726      H1735   1.084       .  S
C1727      C1728   1.407       .  A
C1728      H1736   1.084       .  S
C1737      C1738   1.395       .  A
C1737      C1742   1.402       .  A
C1737      H1753   1.084       .  S
C1738      C1739   1.402       .  A
C1738      H1754   1.084       .  S
C1739      C1749   1.399       .  A
C1739      C1740   1.410       .  A
C1740      C1746   1.408       .  A
C1740      C1741   1.415       .  A
C1741      C1743   1.415       .  A
C1741      C1742   1.408       .  A
C1742      C1750   1.396       .  A
C1743      C1752   1.417       .  A
C1743      C1744   1.406       .  A
C1744      C1745   1.406       .  A
C1744      H1755   1.083       .  S
C1745      C1746   1.407       .  A
C1745      H1756   1.083       .  S
C1746      C1747   1.411       .  A
C1747      C1748   1.420       .  A
C1747      H1757   1.082       .  S
C1748      C1749   1.413       .  A
C1749      H1758   1.083       .  S
C1750      C1751   1.407       .  A
C1750      H1759   1.085       .  S
C1751      C1752   1.409       .  A
C1752      H1760   1.084       .  S
C1761      C1762   1.404       .  A
C1761      C1766   1.406       .  A
C1761      H1777   1.083       .  S
C1762      C1763   1.405       .  A
C1762      H1778   1.083       .  S
C1763      C1773   1.412       .  A
C1763      C1764   1.412       .  A
C1764      C1770   1.411       .  A
C1764      C1765   1.416       .  A
C1765      C1767   1.409   1_554  A
C1765      C1766   1.409       .  A
C1766      C1774   1.410       .  A
C1767      C1776   1.403       .  A
C1767      C1768   1.404       .  A
C1768      C1769   1.399       .  A
C1768      H1779   1.084       .  S
C1769      C1770   1.403   1_556  A
C1769      H1780   1.084       .  S
C1770      C1771   1.403       .  A
C1771      C1772   1.407       .  A
C1771      H1781   1.085       .  S
C1772      C1773   1.409       .  A
C1773      H1782   1.084       .  S
C1774      C1775   1.418       .  A
C1774      H1783   1.081       .  S
C1775      C1776   1.415   1_554  A
C1776      H1784   1.083       .  S
C1785      C1786   1.398       .  A
C1785      C1790   1.404       .  A
C1785      H1801   1.084       .  S
C1786      C1787   1.403   1_554  A
C1786      H1802   1.084       .  S
C1787      C1797   1.402       .  A
C1787      C1788   1.411       .  A
C1788      C1794   1.412       .  A
C1788      C1789   1.415       .  A
C1789      C1791   1.409       .  A
C1789      C1790   1.408   1_556  A
C1790      C1798   1.402       .  A
C1791      C1800   1.408       .  A
C1791      C1792   1.405       .  A
C1792      C1793   1.403       .  A
C1792      H1803   1.083       .  S
C1793      C1794   1.405       .  A
C1793      H1804   1.083       .  S
C1794      C1795   1.409       .  A
C1795      C1796   1.408       .  A
C1795      H1805   1.084       .  S
C1796      C1797   1.407       .  A
C1797      H1806   1.085       .  S
C1798      C1799   1.416       .  A
C1798      H1807   1.083       .  S
C1799      C1800   1.418   1_554  A
C1800      H1808   1.081       .  S
C1809      C1810   1.404       .  A
C1809      C1814   1.406       .  A
C1809      H1825   1.083       .  S
C1810      C1811   1.405       .  A
C1810      H1826   1.083       .  S
C1811      C1821   1.414       .  A
C1811      C1812   1.414       .  A
C1812      C1818   1.409       .  A
C1812      C1813   1.415       .  A
C1813      C1815   1.409       .  A
C1813      C1814   1.409       .  A
C1814      C1822   1.410       .  A
C1815      C1824   1.400       .  A
C1815      C1816   1.403       .  A
C1816      C1817   1.396       .  A
C1816      H1827   1.084       .  S
C1817      C1818   1.403       .  A
C1817      H1828   1.084       .  S
C1818      C1819   1.398       .  A
C1819      C1820   1.406       .  A
C1819      H1829   1.085       .  S
C1820      C1821   1.407       .  A
C1821      H1830   1.084       .  S
C1822      C1823   1.418       .  A
C1822      H1831   1.081       .  S
C1823      C1824   1.413       .  A
C1824      H1832   1.084       .  S
C1833      C1834   1.406       .  A
C1833      C1838   1.407       .  A
C1833      H1849   1.083       .  S
C1834      C1835   1.406       .  A
C1834      H1850   1.083       .  S
C1835      C1845   1.415       .  A
C1835      C1836   1.414       .  A
C1836      C1842   1.410       .  A
C1836      C1837   1.415       .  A
C1837      C1839   1.408       .  A
C1837      C1838   1.410       .  A
C1838      C1846   1.414       .  A
C1839      C1848   1.396       .  A
C1839      C1840   1.402       .  A
C1840      C1841   1.395       .  A
C1840      H1851   1.084       .  S
C1841      C1842   1.402       .  A
C1841      H1852   1.084       .  S
C1842      C1843   1.396       .  A
C1843      C1844   1.405       .  A
C1843      H1853   1.085       .  S
C1844      C1845   1.409       .  A
C1845      H1854   1.084       .  S
C1846      C1847   1.419       .  A
C1846      H1855   1.080       .  S
C1847      C1848   1.414       .  A
C1848      H1856   1.085       .  S
C1857      C1858   1.393       .  A
C1857      C1862   1.402       .  A
C1857      H1873   1.084       .  S
C1858      C1859   1.402       .  A
C1858      H1874   1.084       .  S
C1859      C1869   1.398       .  A
C1859      C1860   1.410   1_554  A
C1860      C1866   1.407       .  A
C1860      C1861   1.414       .  A
C1861      C1863   1.415       .  A
C1861      C1862   1.406   1_556  A
C1862      C1870   1.392   1_554  A
C1863      C1872   1.417       .  A
C1863      C1864   1.405       .  A
C1864      C1865   1.406       .  A
C1864      H1875   1.083       .  S
C1865      C1866   1.407       .  A
C1865      H1876   1.083       .  S
C1866      C1867   1.409       .  A
C1867      C1868   1.419       .  A
C1867      H1877   1.084       .  S
C1868      C1869   1.414   1_556  A
C1869      H1878   1.081       .  S
C1870      C1871   1.410       .  A
C1870      H1879   1.085   1_556  S
C1871      C1872   1.409       .  A
C1872      H1880   1.084       .  S
C1881      C1882   1.394       .  A
C1881      C1886   1.402       .  A
C1881      H1897   1.084       .  S
C1882      C1883   1.401       .  A
C1882      H1898   1.084       .  S
C1883      C1893   1.395       .  A
C1883      C1884   1.410       .  A
C1884      C1890   1.413       .  A
C1884      C1885   1.412       .  A
C1885      C1887   1.410       .  A
C1885      C1886   1.408       .  A
C1886      C1894   1.393       .  A
C1887      C1896   1.410       .  A
C1887      C1888   1.406       .  A
C1888      C1889   1.404       .  A
C1888      H1899   1.083       .  S
C1889      C1890   1.405       .  A
C1889      H1900   1.083       .  S
C1890      C1891   1.412       .  A
C1891      C1892   1.407       .  A
C1891      H1901   1.084       .  S
C1892      C1893   1.402       .  A
C1893      H1902   1.086       .  S
C1894      C1895   1.415       .  A
C1894      H1903   1.085       .  S
C1895      C1896   1.418       .  A
C1896      H1904   1.079       .  S
C1905      C1906   1.401       .  A
C1905      C1910   1.405       .  A
C1905      H1921   1.084       .  S
C1906      C1907   1.404       .  A
C1906      H1922   1.083       .  S
C1907      C1917   1.408       .  A
C1907      C1908   1.411       .  A
C1908      C1914   1.405       .  A
C1908      C1909   1.413       .  A
C1909      C1911   1.414       .  A
C1909      C1910   1.409       .  A
C1910      C1918   1.403       .  A
C1911      C1920   1.405       .  A
C1911      C1912   1.402       .  A
C1912      C1913   1.398       .  A
C1912      H1923   1.084       .  S
C1913      C1914   1.405       .  A
C1913      H1924   1.084       .  S
C1914      C1915   1.398       .  A
C1915      C1916   1.420       .  A
C1915      H1925   1.081       .  S
C1916      C1917   1.415       .  A
C1917      H1926   1.084       .  S
C1918      C1919   1.409       .  A
C1918      H1927   1.085       .  S
C1919      C1920   1.403       .  A
C1920      H1928   1.084       .  S
C1929      C1930   1.401       .  A
C1929      C1934   1.404       .  A
C1929      H1945   1.083       .  S
C1930      C1931   1.405       .  A
C1930      H1946   1.083       .  S
C1931      C1941   1.404       .  A
C1931      C1932   1.408       .  A
C1932      C1938   1.415       .  A
C1932      C1933   1.417       .  A
C1933      C1935   1.405       .  A
C1933      C1934   1.412       .  A
C1934      C1942   1.410       .  A
C1935      C1944   1.404       .  A
C1935      C1936   1.406       .  A
C1936      C1937   1.401       .  A
C1936      H1947   1.084       .  S
C1937      C1938   1.403       .  A
C1937      H1948   1.083       .  S
C1938      C1939   1.412       .  A
C1939      C1940   1.406       .  A
C1939      H1949   1.084       .  S
C1940      C1941   1.410       .  A
C1941      H1950   1.085       .  S
C1942      C1943   1.415       .  A
C1942      H1951   1.084       .  S
C1943      C1944   1.423       .  A
C1944      H1952   1.080       .  S
C1953      C1954   1.397       .  A
C1953      C1958   1.404       .  A
C1953      H1969   1.084       .  S
C1954      C1955   1.402       .  A
C1954      H1970   1.084       .  S
C1955      C1965   1.406       .  A
C1955      C1956   1.413   1_545  A
C1956      C1962   1.405       .  A
C1956      C1957   1.414       .  A
C1957      C1959   1.416       .  A
C1957      C1958   1.406   1_565  A
C1958      C1966   1.396       .  A
C1959      C1968   1.414       .  A
C1959      C1960   1.404       .  A
C1960      C1961   1.403       .  A
C1960      H1971   1.083       .  S
C1961      C1962   1.407       .  A
C1961      H1972   1.084       .  S
C1962      C1963   1.403       .  A
C1963      C1964   1.420       .  A
C1963      H1973   1.084       .  S
C1964      C1965   1.410   1_565  A
C1965      H1974   1.081       .  S
C1966      C1967   1.413   1_545  A
C1966      H1975   1.085       .  S
C1967      C1968   1.408       .  A
C1968      H1976   1.084       .  S
C1977      C1978   1.399       .  A
C1977      C1982   1.404       .  A
C1977      H1993   1.084       .  S
C1978      C1979   1.404       .  A
C1978      H1994   1.084       .  S
C1979      C1989   1.400       .  A
C1979      C1980   1.410       .  A
C1980      C1986   1.415   1_565  A
C1980      C1981   1.412       .  A
C1981      C1983   1.406   1_565  A
C1981      C1982   1.412       .  A
C1982      C1990   1.405       .  A
C1983      C1992   1.398       .  A
C1983      C1984   1.404       .  A
C1984      C1985   1.399       .  A
C1984      H1995   1.084       .  S
C1985      C1986   1.403       .  A
C1985      H1996   1.083       .  S
C1986      C1987   1.406       .  A
C1987      C1988   1.401       .  A
C1987      H1997   1.084       .  S
C1988      C1989   1.404   1_545  A
C1989      H1998   1.085       .  S
C1990      C1991   1.413       .  A
C1990      H1999   1.079       .  S
C1991      C1992   1.418   1_565  A
C1992      H2000   1.084       .  S
C2001      C2002   1.393       .  A
C2001      C2006   1.402       .  A
C2001      H2017   1.084       .  S
C2002      C2003   1.401       .  A
C2002      H2018   1.084       .  S
C2003      C2013   1.396       .  A
C2003      C2004   1.409       .  A
C2004      C2010   1.407       .  A
C2004      C2005   1.413       .  A
C2005      C2007   1.414       .  A
C2005      C2006   1.407       .  A
C2006      C2014   1.392       .  A
C2007      C2016   1.416       .  A
C2007      C2008   1.406       .  A
C2008      C2009   1.406       .  A
C2008      H2019   1.083       .  S
C2009      C2010   1.407       .  A
C2009      H2020   1.083       .  S
C2010      C2011   1.409       .  A
C2011      C2012   1.420       .  A
C2011      H2021   1.083       .  S
C2012      C2013   1.414       .  A
C2013      H2022   1.082       .  S
C2014      C2015   1.409       .  A
C2014      H2023   1.085       .  S
C2015      C2016   1.410       .  A
C2016      H2024   1.084       .  S
C2025      C2026   1.402       .  A
C2025      C2030   1.404       .  A
C2025      H2041   1.083       .  S
C2026      C2027   1.405       .  A
C2026      H2042   1.083       .  S
C2027      C2037   1.408       .  A
C2027      C2028   1.409       .  A
C2028      C2034   1.409       .  A
C2028      C2029   1.416       .  A
C2029      C2031   1.410       .  A
C2029      C2030   1.413       .  A
C2030      C2038   1.410       .  A
C2031      C2040   1.404       .  A
C2031      C2032   1.404       .  A
C2032      C2033   1.399       .  A
C2032      H2043   1.084       .  S
C2033      C2034   1.403       .  A
C2033      H2044   1.084       .  S
C2034      C2035   1.403       .  A
C2035      C2036   1.415       .  A
C2035      H2045   1.084       .  S
C2036      C2037   1.417       .  A
C2037      H2046   1.081       .  S
C2038      C2039   1.408       .  A
C2038      H2047   1.084       .  S
C2039      C2040   1.410       .  A
C2040      H2048   1.084       .  S
C2049      C2050   1.401       .  A
C2049      C2054   1.403       .  A
C2049      H2065   1.083       .  S
C2050      C2051   1.405       .  A
C2050      H2066   1.083       .  S
C2051      C2061   1.403       .  A
C2051      C2052   1.407       .  A
C2052      C2058   1.411       .  A
C2052      C2053   1.413       .  A
C2053      C2055   1.409       .  A
C2053      C2054   1.416       .  A
C2054      C2062   1.410       .  A
C2055      C2064   1.397       .  A
C2055      C2056   1.403       .  A
C2056      C2057   1.397       .  A
C2056      H2067   1.084       .  S
C2057      C2058   1.403       .  A
C2057      H2068   1.084       .  S
C2058      C2059   1.403       .  A
C2059      C2060   1.415       .  A
C2059      H2069   1.082       .  S
C2060      C2061   1.417       .  A
C2061      H2070   1.083       .  S
C2062      C2063   1.403       .  A
C2062      H2071   1.084       .  S
C2063      C2064   1.404       .  A
C2064      H2072   1.086       .  S
C2073      C2074   1.406       .  A
C2073      C2078   1.407       .  A
C2073      H2089   1.083       .  S
C2074      C2075   1.407   1_554  A
C2074      H2090   1.083   1_565  S
C2075      C2085   1.413       .  A
C2075      C2076   1.411   1_556  A
C2076      C2082   1.411   1_554  A
C2076      C2077   1.414       .  A
C2077      C2079   1.406       .  A
C2077      C2078   1.412       .  A
C2078      C2086   1.416       .  A
C2079      C2088   1.391       .  A
C2079      C2080   1.402       .  A
C2080      C2081   1.393       .  A
C2080      H2091   1.084       .  S
C2081      C2082   1.401   1_554  A
C2081      H2092   1.084       .  S
C2082      C2083   1.396       .  A
C2083      C2084   1.405       .  A
C2083      H2093   1.085       .  S
C2084      C2085   1.412       .  A
C2085      H2094   1.084   1_565  S
C2086      C2087   1.417       .  A
C2086      H2095   1.078       .  S
C2087      C2088   1.417       .  A
C2088      H2096   1.084       .  S
C2097      C2098   1.395       .  A
C2097      C2102   1.401       .  A
C2097      H2113   1.084       .  S
C2098      C2099   1.404       .  A
C2098      H2114   1.084       .  S
C2099      C2109   1.394       .  A
C2099      C2100   1.403       .  A
C2100      C2106   1.413   1_554  A
C2100      C2101   1.416       .  A
C2101      C2103   1.409   1_554  A
C2101      C2102   1.413       .  A
C2102      C2110   1.402       .  A
C2103      C2112   1.411       .  A
C2103      C2104   1.407       .  A
C2104      C2105   1.406       .  A
C2104      H2115   1.083       .  S
C2105      C2106   1.406       .  A
C2105      H2116   1.083       .  S
C2106      C2107   1.418       .  A
C2107      C2108   1.416   1_556  A
C2107      H2117   1.083       .  S
C2108      C2109   1.422       .  A
C2109      H2118   1.082       .  S
C2110      C2111   1.406       .  A
C2110      H2119   1.084       .  S
C2111      C2112   1.415   1_554  A
C2112      H2120   1.084       .  S
C2121      C2122   1.397       .  A
C2121      C2126   1.403       .  A
C2121      H2137   1.084       .  S
C2122      C2123   1.403       .  A
C2122      H2138   1.084       .  S
C2123      C2133   1.403       .  A
C2123      C2124   1.412       .  A
C2124      C2130   1.410       .  A
C2124      C2125   1.413       .  A
C2125      C2127   1.412       .  A
C2125      C2126   1.407       .  A
C2126      C2134   1.397       .  A
C2127      C2136   1.409       .  A
C2127      C2128   1.404       .  A
C2128      C2129   1.402       .  A
C2128      H2139   1.083       .  S
C2129      C2130   1.405       .  A
C2129      H2140   1.083       .  S
C2130      C2131   1.407       .  A
C2131      C2132   1.410       .  A
C2131      H2141   1.084       .  S
C2132      C2133   1.407       .  A
C2133      H2142   1.084       .  S
C2134      C2135   1.416       .  A
C2134      H2143   1.085       .  S
C2135      C2136   1.414       .  A
C2136      H2144   1.080       .  S
C2145      C2146   1.404       .  A
C2145      C2150   1.407       .  A
C2145      H2161   1.084       .  S
C2146      C2147   1.405       .  A
C2146      H2162   1.083       .  S
C2147      C2157   1.414       .  A
C2147      C2148   1.412       .  A
C2148      C2154   1.404       .  A
C2148      C2149   1.415       .  A
C2149      C2151   1.414       .  A
C2149      C2150   1.409       .  A
C2150      C2158   1.408       .  A
C2151      C2160   1.404       .  A
C2151      C2152   1.401       .  A
C2152      C2153   1.397       .  A
C2152      H2163   1.084       .  S
C2153      C2154   1.405       .  A
C2153      H2164   1.084       .  S
C2154      C2155   1.396       .  A
C2155      C2156   1.422       .  A
C2155      H2165   1.080       .  S
C2156      C2157   1.415       .  A
C2157      H2166   1.084       .  S
C2158      C2159   1.412       .  A
C2158      H2167   1.084       .  S
C2159      C2160   1.403       .  A
C2160      H2168   1.084       .  S
C2169      C2170   1.393       .  A
C2169      C2174   1.402       .  A
C2169      H2185   1.084       .  S
C2170      C2171   1.402       .  A
C2170      H2186   1.084       .  S
C2171      C2181   1.393       .  A
C2171      C2172   1.407       .  A
C2172      C2178   1.414       .  A
C2172      C2173   1.415       .  A
C2173      C2175   1.407       .  A
C2173      C2174   1.409       .  A
C2174      C2182   1.398       .  A
C2175      C2184   1.411       .  A
C2175      C2176   1.407       .  A
C2176      C2177   1.406       .  A
C2176      H2187   1.083       .  S
C2177      C2178   1.406       .  A
C2177      H2188   1.083       .  S
C2178      C2179   1.417       .  A
C2179      C2180   1.411       .  A
C2179      H2189   1.084       .  S
C2180      C2181   1.411       .  A
C2181      H2190   1.084       .  S
C2182      C2183   1.416       .  A
C2182      H2191   1.078       .  S
C2183      C2184   1.422       .  A
C2184      H2192   1.084       .  S
C2193      C2194   1.399       .  A
C2193      C2198   1.406       .  A
C2193      H2209   1.084       .  S
C2194      C2195   1.403       .  A
C2194      H2210   1.084       .  S
C2195      C2205   1.408       .  A
C2195      C2196   1.415       .  A
C2196      C2202   1.409       .  A
C2196      C2197   1.414       .  A
C2197      C2199   1.412       .  A
C2197      C2198   1.404       .  A
C2198      C2206   1.400       .  A
C2199      C2208   1.408       .  A
C2199      C2200   1.403       .  A
C2200      C2201   1.400       .  A
C2200      H2211   1.083       .  S
C2201      C2202   1.404       .  A
C2201      H2212   1.084       .  S
C2202      C2203   1.401       .  A
C2203      C2204   1.406       .  A
C2203      H2213   1.085       .  S
C2204      C2205   1.404       .  A
C2205      H2214   1.084       .  S
C2206      C2207   1.423       .  A
C2206      H2215   1.080       .  S
C2207      C2208   1.413       .  A
C2208      H2216   1.083       .  S
C2217      C2218   1.404       .  A
C2217      C2222   1.407       .  A
C2217      H2233   1.083       .  S
C2218      C2219   1.405       .  A
C2218      H2234   1.083       .  S
C2219      C2229   1.412       .  A
C2219      C2220   1.413       .  A
C2220      C2226   1.409       .  A
C2220      C2221   1.413       .  A
C2221      C2223   1.408       .  A
C2221      C2222   1.409       .  A
C2222      C2230   1.410       .  A
C2223      C2232   1.397       .  A
C2223      C2224   1.402       .  A
C2224      C2225   1.395       .  A
C2224      H2235   1.084       .  S
C2225      C2226   1.402       .  A
C2225      H2236   1.084       .  S
C2226      C2227   1.396       .  A
C2227      C2228   1.407       .  A
C2227      H2237   1.085       .  S
C2228      C2229   1.409       .  A
C2229      H2238   1.084       .  S
C2230      C2231   1.419       .  A
C2230      H2239   1.080       .  S
C2231      C2232   1.413       .  A
C2232      H2240   1.084       .  S
C2241      C2242   1.399       .  A
C2241      C2246   1.404       .  A
C2241      H2257   1.084       .  S
C2242      C2243   1.404       .  A
C2242      H2258   1.084       .  S
C2243      C2253   1.404       .  A
C2243      C2244   1.410       .  A
C2244      C2250   1.408       .  A
C2244      C2245   1.414       .  A
C2245      C2247   1.413       .  A
C2245      C2246   1.410       .  A
C2246      C2254   1.403       .  A
C2247      C2256   1.408       .  A
C2247      C2248   1.404       .  A
C2248      C2249   1.401       .  A
C2248      H2259   1.083       .  S
C2249      C2250   1.405       .  A
C2249      H2260   1.083       .  S
C2250      C2251   1.404       .  A
C2251      C2252   1.416       .  A
C2251      H2261   1.083       .  S
C2252      C2253   1.416       .  A
C2253      H2262   1.083       .  S
C2254      C2255   1.407       .  A
C2254      H2263   1.085       .  S
C2255      C2256   1.405       .  A
C2256      H2264   1.084       .  S
C2265      C2266   1.398       .  A
C2265      C2270   1.403       .  A
C2265      H2281   1.084       .  S
C2266      C2267   1.403       .  A
C2266      H2282   1.084       .  S
C2267      C2277   1.399       .  A
C2267      C2268   1.408       .  A
C2268      C2274   1.411       .  A
C2268      C2269   1.415       .  A
C2269      C2271   1.412       .  A
C2269      C2270   1.411       .  A
C2270      C2278   1.402       .  A
C2271      C2280   1.409       .  A
C2271      C2272   1.405       .  A
C2272      C2273   1.402       .  A
C2272      H2283   1.083       .  S
C2273      C2274   1.405       .  A
C2273      H2284   1.083       .  S
C2274      C2275   1.409       .  A
C2275      C2276   1.416       .  A
C2275      H2285   1.081       .  S
C2276      C2277   1.415       .  A
C2277      H2286   1.084       .  S
C2278      C2279   1.407       .  A
C2278      H2287   1.085       .  S
C2279      C2280   1.408       .  A
C2280      H2288   1.084       .  S
C2289      C2290   1.407       .  A
C2289      C2294   1.406       .  A
C2289      H2305   1.083       .  S
C2290      C2291   1.407       .  A
C2290      H2306   1.083       .  S
C2291      C2301   1.414       .  A
C2291      C2292   1.409       .  A
C2292      C2298   1.408       .  A
C2292      C2293   1.416       .  A
C2293      C2295   1.408       .  A
C2293      C2294   1.414       .  A
C2294      C2302   1.418       .  A
C2295      C2304   1.395       .  A
C2295      C2296   1.402       .  A
C2296      C2297   1.394       .  A
C2296      H2307   1.084       .  S
C2297      C2298   1.402       .  A
C2297      H2308   1.084       .  S
C2298      C2299   1.397       .  A
C2299      C2300   1.416       .  A
C2299      H2309   1.082       .  S
C2300      C2301   1.418       .  A
C2301      H2310   1.083       .  S
C2302      C2303   1.411       .  A
C2302      H2311   1.084       .  S
C2303      C2304   1.410       .  A
C2304      H2312   1.085       .  S
C2313      C2314   1.407       .  A
C2313      C2318   1.406       .  A
C2313      H2329   1.083       .  S
C2314      C2315   1.407       .  A
C2314      H2330   1.083       .  S
C2315      C2325   1.414       .  A
C2315      C2316   1.409       .  A
C2316      C2322   1.409       .  A
C2316      C2317   1.416       .  A
C2317      C2319   1.408       .  A
C2317      C2318   1.414       .  A
C2318      C2326   1.419       .  A
C2319      C2328   1.395       .  A
C2319      C2320   1.402       .  A
C2320      C2321   1.394       .  A
C2320      H2331   1.084       .  S
C2321      C2322   1.402       .  A
C2321      H2332   1.084       .  S
C2322      C2323   1.397       .  A
C2323      C2324   1.414       .  A
C2323      H2333   1.082       .  S
C2324      C2325   1.419       .  A
C2325      H2334   1.083       .  S
C2326      C2327   1.411       .  A
C2326      H2335   1.084       .  S
C2327      C2328   1.409       .  A
C2328      H2336   1.085       .  S
C2337      C2338   1.395       .  A
C2337      C2342   1.402       .  A
C2337      H2353   1.084       .  S
C2338      C2339   1.402       .  A
C2338      H2354   1.084       .  S
C2339      C2349   1.394       .  A
C2339      C2340   1.407       .  A
C2340      C2346   1.411       .  A
C2340      C2341   1.412       .  A
C2341      C2343   1.412       .  A
C2341      C2342   1.411       .  A
C2342      C2350   1.397       .  A
C2343      C2352   1.409       .  A
C2343      C2344   1.405       .  A
C2344      C2345   1.403       .  A
C2344      H2355   1.083       .  S
C2345      C2346   1.406       .  A
C2345      H2356   1.083       .  S
C2346      C2347   1.410       .  A
C2347      C2348   1.416       .  A
C2347      H2357   1.081       .  S
C2348      C2349   1.413       .  A
C2349      H2358   1.084       .  S
C2350      C2351   1.406       .  A
C2350      H2359   1.085       .  S
C2351      C2352   1.409       .  A
C2352      H2360   1.084       .  S
C2361      C2362   1.406       .  A
C2361      C2366   1.406       .  A
C2361      H2377   1.083       .  S
C2362      C2363   1.407       .  A
C2362      H2378   1.083       .  S
C2363      C2373   1.413       .  A
C2363      C2364   1.410       .  A
C2364      C2370   1.409       .  A
C2364      C2365   1.416       .  A
C2365      C2367   1.409       .  A
C2365      C2366   1.414       .  A
C2366      C2374   1.416       .  A
C2367      C2376   1.397       .  A
C2367      C2368   1.402       .  A
C2368      C2369   1.395       .  A
C2368      H2379   1.084       .  S
C2369      C2370   1.402       .  A
C2369      H2380   1.084       .  S
C2370      C2371   1.397       .  A
C2371      C2372   1.414       .  A
C2371      H2381   1.084       .  S
C2372      C2373   1.418       .  A
C2373      H2382   1.081       .  S
C2374      C2375   1.409       .  A
C2374      H2383   1.084       .  S
C2375      C2376   1.407       .  A
C2376      H2384   1.085       .  S
C2385      C2386   1.404       .  A
C2385      C2390   1.406       .  A
C2385      H2401   1.083       .  S
C2386      C2387   1.405       .  A
C2386      H2402   1.083       .  S
C2387      C2397   1.413       .  A
C2387      C2388   1.413       .  A
C2388      C2394   1.408       .  A
C2388      C2389   1.413       .  A
C2389      C2391   1.408       .  A
C2389      C2390   1.408       .  A
C2390      C2398   1.409       .  A
C2391      C2400   1.397       .  A
C2391      C2392   1.402       .  A
C2392      C2393   1.394       .  A
C2392      H2403   1.084       .  S
C2393      C2394   1.402       .  A
C2393      H2404   1.084       .  S
C2394      C2395   1.395       .  A
C2395      C2396   1.410       .  A
C2395      H2405   1.084       .  S
C2396      C2397   1.409       .  A
C2397      H2406   1.084       .  S
C2398      C2399   1.418       .  A
C2398      H2407   1.084       .  S
C2399      C2400   1.416       .  A
C2400      H2408   1.080       .  S
C2409      C2410   1.398       .  A
C2409      C2414   1.402       .  A
C2409      H2425   1.084       .  S
C2410      C2411   1.406       .  A
C2410      H2426   1.084       .  S
C2411      C2421   1.397       .  A
C2411      C2412   1.403       .  A
C2412      C2418   1.413       .  A
C2412      C2413   1.413       .  A
C2413      C2415   1.408       .  A
C2413      C2414   1.416       .  A
C2414      C2422   1.407       .  A
C2415      C2424   1.401       .  A
C2415      C2416   1.405       .  A
C2416      C2417   1.401       .  A
C2416      H2427   1.084       .  S
C2417      C2418   1.403       .  A
C2417      H2428   1.083       .  S
C2418      C2419   1.409       .  A
C2419      C2420   1.414       .  A
C2419      H2429   1.084       .  S
C2420      C2421   1.423       .  A
C2421      H2430   1.078       .  S
C2422      C2423   1.402       .  A
C2422      H2431   1.084       .  S
C2423      C2424   1.408       .  A
C2424      H2432   1.085       .  S
C2433      C2434   1.393       .  A
C2433      C2438   1.402       .  A
C2433      H2449   1.084       .  S
C2434      C2435   1.400       .  A
C2434      H2450   1.084       .  S
C2435      C2445   1.397       .  A
C2435      C2436   1.412       .  A
C2436      C2442   1.410       .  A
C2436      C2437   1.415       .  A
C2437      C2439   1.412       .  A
C2437      C2438   1.404       .  A
C2438      C2446   1.391       .  A
C2439      C2448   1.418       .  A
C2439      C2440   1.407       .  A
C2440      C2441   1.408       .  A
C2440      H2451   1.083       .  S
C2441      C2442   1.408       .  A
C2441      H2452   1.083       .  S
C2442      C2443   1.414       .  A
C2443      C2444   1.415       .  A
C2443      H2453   1.084       .  S
C2444      C2445   1.405       .  A
C2445      H2454   1.084       .  S
C2446      C2447   1.419       .  A
C2446      H2455   1.082       .  S
C2447      C2448   1.418       .  A
C2448      H2456   1.083       .  S
C2457      C2458   1.395       .  A
C2457      C2462   1.402       .  A
C2457      H2473   1.084       .  S
C2458      C2459   1.402       .  A
C2458      H2474   1.084       .  S
C2459      C2469   1.397       .  A
C2459      C2460   1.410       .  A
C2460      C2466   1.412       .  A
C2460      C2461   1.414       .  A
C2461      C2463   1.411       .  A
C2461      C2462   1.408       .  A
C2462      C2470   1.395       .  A
C2463      C2472   1.412       .  A
C2463      C2464   1.406       .  A
C2464      C2465   1.404       .  A
C2464      H2475   1.083       .  S
C2465      C2466   1.406       .  A
C2465      H2476   1.083       .  S
C2466      C2467   1.412       .  A
C2467      C2468   1.410       .  A
C2467      H2477   1.084       .  S
C2468      C2469   1.407       .  A
C2469      H2478   1.084       .  S
C2470      C2471   1.415       .  A
C2470      H2479   1.085       .  S
C2471      C2472   1.416       .  A
C2472      H2480   1.079       .  S
C2481      C2482   1.396       .  A
C2481      C2486   1.404       .  A
C2481      H2497   1.084       .  S
C2482      C2483   1.402       .  A
C2482      H2498   1.084       .  S
C2483      C2493   1.402       .  A
C2483      C2484   1.412       .  A
C2484      C2490   1.406   1_545  A
C2484      C2485   1.413       .  A
C2485      C2487   1.415   1_545  A
C2485      C2486   1.407       .  A
C2486      C2494   1.396       .  A
C2487      C2496   1.412       .  A
C2487      C2488   1.404       .  A
C2488      C2489   1.402       .  A
C2488      H2499   1.083       .  S
C2489      C2490   1.406       .  A
C2489      H2500   1.083       .  S
C2490      C2491   1.403       .  A
C2491      C2492   1.418   1_565  A
C2491      H2501   1.084       .  S
C2492      C2493   1.412       .  A
C2493      H2502   1.081       .  S
C2494      C2495   1.411   1_545  A
C2494      H2503   1.084       .  S
C2495      C2496   1.407       .  A
C2496      H2504   1.084       .  S
C2505      C2506   1.400       .  A
C2505      C2510   1.403       .  A
C2505      H2521   1.083       .  S
C2506      C2507   1.405       .  A
C2506      H2522   1.084       .  S
C2507      C2517   1.400       .  A
C2507      C2508   1.406       .  A
C2508      C2514   1.412   1_545  A
C2508      C2509   1.413       .  A
C2509      C2511   1.409   1_545  A
C2509      C2510   1.416       .  A
C2510      C2518   1.408       .  A
C2511      C2520   1.401       .  A
C2511      C2512   1.404       .  A
C2512      C2513   1.400       .  A
C2512      H2523   1.084       .  S
C2513      C2514   1.404       .  A
C2513      H2524   1.084       .  S
C2514      C2515   1.407       .  A
C2515      C2516   1.414   1_565  A
C2515      H2525   1.079       .  S
C2516      C2517   1.419       .  A
C2517      H2526   1.084       .  S
C2518      C2519   1.402       .  A
C2518      H2527   1.084       .  S
C2519      C2520   1.405   1_545  A
C2520      H2528   1.085       .  S
C2529      C2530   1.400       .  A
C2529      C2534   1.403       .  A
C2529      H2545   1.083       .  S
C2530      C2531   1.405       .  A
C2530      H2546   1.084       .  S
C2531      C2541   1.402       .  A
C2531      C2532   1.406       .  A
C2532      C2538   1.411       .  A
C2532      C2533   1.414       .  A
C2533      C2535   1.409       .  A
C2533      C2534   1.413       .  A
C2534      C2542   1.407       .  A
C2535      C2544   1.403       .  A
C2535      C2536   1.404       .  A
C2536      C2537   1.400       .  A
C2536      H2547   1.084       .  S
C2537      C2538   1.403       .  A
C2537      H2548   1.084       .  S
C2538      C2539   1.406       .  A
C2539      C2540   1.414       .  A
C2539      H2549   1.084       .  S
C2540      C2541   1.421       .  A
C2541      H2550   1.080       .  S
C2542      C2543   1.406       .  A
C2542      H2551   1.084       .  S
C2543      C2544   1.409       .  A
C2544      H2552   1.084       .  S
C2553      C2554   1.403       .  A
C2553      C2558   1.405       .  A
C2553      H2569   1.083       .  S
C2554      C2555   1.405       .  A
C2554      H2570   1.083       .  S
C2555      C2565   1.412       .  A
C2555      C2556   1.414       .  A
C2556      C2562   1.410       .  A
C2556      C2557   1.414       .  A
C2557      C2559   1.409       .  A
C2557      C2558   1.409       .  A
C2558      C2566   1.408       .  A
C2559      C2568   1.399       .  A
C2559      C2560   1.403       .  A
C2560      C2561   1.397       .  A
C2560      H2571   1.084       .  S
C2561      C2562   1.403       .  A
C2561      H2572   1.084       .  S
C2562      C2563   1.399       .  A
C2563      C2564   1.406       .  A
C2563      H2573   1.085       .  S
C2564      C2565   1.407       .  A
C2565      H2574   1.084       .  S
C2566      C2567   1.415       .  A
C2566      H2575   1.083       .  S
C2567      C2568   1.416       .  A
C2568      H2576   1.083       .  S
C2577      C2578   1.399       .  A
C2577      C2582   1.404       .  A
C2577      H2593   1.084       .  S
C2578      C2579   1.403       .  A
C2578      H2594   1.084       .  S
C2579      C2589   1.404       .  A
C2579      C2580   1.411       .  A
C2580      C2586   1.412       .  A
C2580      C2581   1.416       .  A
C2581      C2583   1.411       .  A
C2581      C2582   1.408       .  A
C2582      C2590   1.401       .  A
C2583      C2592   1.411       .  A
C2583      C2584   1.405       .  A
C2584      C2585   1.403       .  A
C2584      H2595   1.083       .  S
C2585      C2586   1.405       .  A
C2585      H2596   1.083       .  S
C2586      C2587   1.410       .  A
C2587      C2588   1.408       .  A
C2587      H2597   1.084       .  S
C2588      C2589   1.408       .  A
C2589      H2598   1.085       .  S
C2590      C2591   1.416       .  A
C2590      H2599   1.084       .  S
C2591      C2592   1.416       .  A
C2592      H2600   1.081       .  S
C2601      C2602   1.401       .  A
C2601      C2606   1.405       .  A
C2601      H2617   1.084       .  S
C2602      C2603   1.403       .  A
C2602      H2618   1.083       .  S
C2603      C2613   1.410       .  A
C2603      C2604   1.415       .  A
C2604      C2610   1.410       .  A
C2604      C2605   1.415       .  A
C2605      C2607   1.411       .  A
C2605      C2606   1.407       .  A
C2606      C2614   1.403       .  A
C2607      C2616   1.406       .  A
C2607      C2608   1.404       .  A
C2608      C2609   1.399       .  A
C2608      H2619   1.084       .  S
C2609      C2610   1.403       .  A
C2609      H2620   1.084       .  S
C2610      C2611   1.401       .  A
C2611      C2612   1.405       .  A
C2611      H2621   1.085       .  S
C2612      C2613   1.404       .  A
C2613      H2622   1.084       .  S
C2614      C2615   1.417       .  A
C2614      H2623   1.084       .  S
C2615      C2616   1.415       .  A
C2616      H2624   1.081       .  S
C2625      C2626   1.399       .  A
C2625      C2630   1.405       .  A
C2625      H2641   1.084       .  S
C2626      C2627   1.403       .  A
C2626      H2642   1.083       .  S
C2627      C2637   1.408       .  A
C2627      C2628   1.415       .  A
C2628      C2634   1.408       .  A
C2628      C2629   1.413       .  A
C2629      C2631   1.411       .  A
C2629      C2630   1.405       .  A
C2630      C2638   1.401       .  A
C2631      C2640   1.407       .  A
C2631      C2632   1.404       .  A
C2632      C2633   1.401       .  A
C2632      H2643   1.084       .  S
C2633      C2634   1.405       .  A
C2633      H2644   1.084       .  S
C2634      C2635   1.402       .  A
C2635      C2636   1.410       .  A
C2635      H2645   1.085       .  S
C2636      C2637   1.404       .  A
C2637      H2646   1.084       .  S
C2638      C2639   1.421       .  A
C2638      H2647   1.080       .  S
C2639      C2640   1.414       .  A
C2640      H2648   1.084       .  S
C2649      C2650   1.398       .  A
C2649      C2654   1.405       .  A
C2649      H2665   1.084       .  S
C2650      C2651   1.402       .  A
C2650      H2666   1.084       .  S
C2651      C2661   1.406       .  A
C2651      C2652   1.415       .  A
C2652      C2658   1.409       .  A
C2652      C2653   1.414       .  A
C2653      C2655   1.412       .  A
C2653      C2654   1.404       .  A
C2654      C2662   1.398       .  A
C2655      C2664   1.410       .  A
C2655      C2656   1.404       .  A
C2656      C2657   1.401       .  A
C2656      H2667   1.083       .  S
C2657      C2658   1.405       .  A
C2657      H2668   1.083       .  S
C2658      C2659   1.404       .  A
C2659      C2660   1.408       .  A
C2659      H2669   1.085       .  S
C2660      C2661   1.402       .  A
C2661      H2670   1.085       .  S
C2662      C2663   1.422       .  A
C2662      H2671   1.081       .  S
C2663      C2664   1.414       .  A
C2664      H2672   1.083       .  S
C2673      C2674   1.395       .  A
C2673      C2678   1.403       .  A
C2673      H2689   1.084       .  S
C2674      C2675   1.403       .  A
C2674      H2690   1.084       .  S
C2675      C2685   1.396       .  A
C2675      C2676   1.407       .  A
C2676      C2682   1.414       .  A
C2676      C2677   1.415       .  A
C2677      C2679   1.408       .  A
C2677      C2678   1.409       .  A
C2678      C2686   1.399       .  A
C2679      C2688   1.410       .  A
C2679      C2680   1.406       .  A
C2680      C2681   1.405       .  A
C2680      H2691   1.083       .  S
C2681      C2682   1.405       .  A
C2681      H2692   1.083       .  S
C2682      C2683   1.416       .  A
C2683      C2684   1.410       .  A
C2683      H2693   1.084       .  S
C2684      C2685   1.412       .  A
C2685      H2694   1.084       .  S
C2686      C2687   1.417       .  A
C2686      H2695   1.080       .  S
C2687      C2688   1.418       .  A
C2688      H2696   1.084       .  S
