geometry optimzed in LAMMPS
_audit_creation_date              2020-11-30 
_audit_creation_method            'lammps2cif' 
_symmetry_space_group_name_H-M    'P1' 
_symmetry_Int_Tables_number       1 
_symmetry_cell_setting            triclinic 
loop_ 
_symmetry_equiv_pos_as_xyz 
  x,y,z 
_cell_length_a                    76.97920913 
_cell_length_b                    76.84066723701385 
_cell_length_c                    31.594915794209587 
_cell_angle_alpha                 89.99667355743536 
_cell_angle_beta                  89.90838502569451 
_cell_angle_gamma                 90.01703690595399 
loop_ 
_atom_site_label 
_atom_site_type_symbol 
_atom_site_fract_x 
_atom_site_fract_y 
_atom_site_fract_z 
_atom_site_charge 
C1          C  0.70849040  0.82801835  0.50356776     0.88200
C2          C  0.69013667  0.83467217  0.49423835    -0.52000
C3          C  0.67964561  0.83605389  0.52898736     0.11100
C4          C  0.68855796  0.83054325  0.57059318     0.22100
C5          C  0.71553110  0.84025397  0.53809926    -0.52800
C6          C  0.70508835  0.84184611  0.57290622     0.11200
C7          C  0.70588249  0.81078072  0.52766526    -0.52300
C8          C  0.69546290  0.81205051  0.56252786     0.11800
H9          H  0.68603030  0.83855277  0.46275762     0.16300
H10         H  0.68002899  0.83150391  0.59884341     0.02000
H11         H  0.72800930  0.84677316  0.53557797     0.16600
H12         H  0.71259867  0.79876549  0.52079259     0.16400
C13         C  0.71140024  0.67872192  0.76009676     0.88200
C14         C  0.69329776  0.67089996  0.76938284    -0.52000
C15         C  0.68230270  0.67077523  0.73539404     0.11100
C16         C  0.69033199  0.67875587  0.69497952     0.22100
C17         C  0.71810386  0.66846570  0.72189019    -0.52800
C18         C  0.70723628  0.66835548  0.68806620     0.11200
C19         C  0.70708461  0.69694125  0.74303579    -0.52300
C20         C  0.69618038  0.69712873  0.70898306     0.11800
H21         H  0.68896336  0.66614562  0.79967948     0.16300
H22         H  0.68148411  0.67877622  0.66726850     0.02000
H23         H  0.73032238  0.66138160  0.72203561     0.16600
H24         H  0.71239564  0.70878158  0.75662476     0.16400
O25         O  0.74364793  0.93372514  0.81390734    -0.56100
C26         C  0.72808768  0.95768196  0.91282194     0.76500
O27         O  0.77917712  0.92951292  0.93560689    -0.57300
C28         C  0.74646888  0.91749782  0.81343405     0.76500
C29         C  0.78708458  0.96012279  0.84863555     0.78900
Cd30       Cd  0.75845217  0.93936697  0.88134088     1.37500
O31         O  0.72919733  0.95145734  0.87593612    -0.56100
O32         O  0.77542914  0.96675725  0.87190001    -0.54900
C33         C  0.77002359  0.91692067  0.94859791     0.78800
O34         O  0.78510429  0.94422172  0.83977606    -0.57300
O35         O  0.74151156  0.95606260  0.93560379    -0.55700
O36         O  0.75533737  0.91152439  0.84382784    -0.55700
O37         O  0.75542235  0.91504362  0.93092347    -0.54900
C38         C  0.79715209  0.82875872  0.26354805     0.88200
C39         C  0.81629480  0.83388018  0.27186452    -0.52000
C40         C  0.82671353  0.83301096  0.23679654     0.11100
C41         C  0.81727556  0.82680307  0.19675123     0.22100
C42         C  0.79168341  0.84060546  0.22674344    -0.52800
C43         C  0.80212594  0.83960254  0.19198481     0.11200
C44         C  0.79854423  0.81044736  0.24431785    -0.52300
C45         C  0.80883588  0.80935969  0.20920810     0.11800
H46         H  0.82157093  0.83846207  0.30135855     0.16300
H47         H  0.82573266  0.82611833  0.16829818     0.02000
H48         H  0.78047507  0.84917885  0.22821391     0.16600
H49         H  0.79192661  0.79923221  0.25769412     0.16400
C50         C  0.80364887  0.67878523  0.99208333     0.88200
C51         C  0.82223668  0.67191034  0.98481851    -0.52000
C52         C  0.83239463  0.67200772  0.02017173     0.11100
C53         C  0.82329162  0.67918604  0.05978253     0.22100
C54         C  0.79683114  0.66754033  0.02896258    -0.52800
C55         C  0.80701193  0.66778705  0.06434736     0.11200
C56         C  0.80634607  0.69692618  0.01126589    -0.52300
C57         C  0.81640044  0.69722205  0.04675579     0.11800
H58         H  0.82736945  0.66674972  0.95575354     0.16300
H59         H  0.83160152  0.67934628  0.08847881     0.02000
H60         H  0.78502387  0.65983808  0.02695181     0.16600
H61         H  0.80003692  0.70849623  0.99887192     0.16400
O62         O  0.73929922  0.54749935  0.33367435    -0.56100
C63         C  0.74557056  0.59175354  0.44602097     0.76500
O64         O  0.78696180  0.56618709  0.39211916    -0.57300
C65         C  0.72450369  0.55117690  0.34876519     0.76500
C66         C  0.76871596  0.59103138  0.30610820     0.78900
Cd67       Cd  0.75592711  0.56987402  0.37566789     1.37500
O68         O  0.74217590  0.59553400  0.40793480    -0.56100
O69         O  0.76833404  0.57460236  0.30344491    -0.54900
C70         C  0.78604996  0.55095895  0.40701733     0.78800
O71         O  0.76274415  0.59736872  0.34002303    -0.57300
O72         O  0.75398731  0.57778218  0.45178342    -0.55700
O73         O  0.72443134  0.56293408  0.37664818    -0.55700
O74         O  0.77101321  0.54421816  0.40752221    -0.54900
C75         C  0.89471510  0.06573944  0.75113842     0.88200
C76         C  0.90764492  0.06248321  0.78758167    -0.52000
C77         C  0.91395385  0.04585434  0.78987392     0.11100
C78         C  0.90689145  0.03392000  0.75453675     0.22100
C79         C  0.90513999  0.06028049  0.71155687    -0.52800
C80         C  0.91142205  0.04363840  0.71329137     0.11200
C81         C  0.88079450  0.05167349  0.75629880    -0.52300
C82         C  0.88702499  0.03517886  0.75846943     0.11800
H83         H  0.91116142  0.07249240  0.81025055     0.16300
H84         H  0.91199908  0.02042257  0.75547625     0.02000
H85         H  0.90865349  0.06879745  0.68569047     0.16600
H86         H  0.86706761  0.05461447  0.76011933     0.16400
C87         C  0.94332121  0.89346353  0.26390660     0.88200
C88         C  0.94741426  0.90513492  0.30246376    -0.52000
C89         C  0.96386030  0.91184923  0.30252539     0.11100
C90         C  0.97487215  0.90640874  0.26401979     0.22100
C91         C  0.94747544  0.90527914  0.22574428    -0.52800
C92         C  0.96390543  0.91197519  0.22565454     0.11200
C93         C  0.95783293  0.87977606  0.26402914    -0.52300
C94         C  0.97429379  0.88635718  0.26361815     0.11800
H95         H  0.93840960  0.90881679  0.32702938     0.16300
H96         H  0.98820522  0.91194104  0.26392367     0.02000
H97         H  0.93812464  0.90824179  0.20106057     0.16600
H98         H  0.95521654  0.86590051  0.26225146     0.16400
C99         C  0.05937581  0.11559885  0.25109409     0.88200
C100        C  0.05395729  0.10574527  0.29127072    -0.52000
C101        C  0.03718048  0.09981788  0.29132580     0.11100
C102        C  0.02708010  0.10469952  0.25064682     0.22100
C103        C  0.05502352  0.10318462  0.21426675    -0.52800
C104        C  0.03827153  0.09745176  0.21417566     0.11200
C105        C  0.04577307  0.13009755  0.24585344    -0.52300
C106        C  0.02884329  0.12469619  0.24649112     0.11800
H107        H  0.06300806  0.10300315  0.31674153     0.16300
H108        H  0.01347099  0.09995102  0.25053014     0.02000
H109        H  0.06392168  0.09959986  0.18915620     0.16600
H110        H  0.04931927  0.14354374  0.23985397     0.16400
C111        C  0.11201025  0.94604869  0.76545614     0.88200
C112        C  0.10069302  0.95198647  0.80298409    -0.52000
C113        C  0.09518847  0.96882253  0.80068460     0.11100
C114        C  0.10165645  0.97854116  0.76106728     0.22100
C115        C  0.10115911  0.95027792  0.72590347    -0.52800
C116        C  0.09558253  0.96719736  0.72344688     0.11200
C117        C  0.12678553  0.95948655  0.76544943    -0.52300
C118        C  0.12159548  0.97643790  0.76293006     0.11800
H119        H  0.09760493  0.94420722  0.83036119     0.16300
H120        H  0.09722603  0.99227027  0.75940402     0.02000
H121        H  0.09801210  0.94059484  0.70208388     0.16600
H122        H  0.14029616  0.95586126  0.76996586     0.16400
C123        C  0.00529291  0.00610890  0.50667139    -0.00800
C124        C  0.00154157  0.00273552  0.00910105    -0.00800
C125        C  0.18271065  0.70997116  0.51932810     0.88200
C126        C  0.20014766  0.70656975  0.49713669    -0.52000
C127        C  0.19888485  0.69750426  0.46019195     0.11100
C128        C  0.18024769  0.69194473  0.44916971     0.22100
C129        C  0.17111119  0.71830239  0.48537484    -0.52800
C130        C  0.16981383  0.70894510  0.44890206     0.11200
C131        C  0.17518372  0.69144137  0.52537580    -0.52300
C132        C  0.17365691  0.68221310  0.48852464     0.11800
H133        H  0.21251159  0.71124954  0.50916031     0.16300
H134        H  0.17916448  0.68434000  0.41938177     0.02000
H135        H  0.16450448  0.73065883  0.48985950     0.16600
H136        H  0.17146712  0.68564257  0.55517420     0.16400
C137        C  0.32818776  0.70506502  0.24037402     0.88200
C138        C  0.30994668  0.70169630  0.25855287    -0.52000
C139        C  0.30965599  0.69154009  0.29396326     0.11100
C140        C  0.32777323  0.68509820  0.30754505     0.22100
C141        C  0.33892543  0.71194177  0.27752698    -0.52800
C142        C  0.33880362  0.70170338  0.31270421     0.11200
C143        C  0.33537900  0.68651363  0.23265548    -0.52300
C144        C  0.33531332  0.67613141  0.26797177     0.11800
H145        H  0.29827064  0.70750421  0.24546026     0.16300
H146        H  0.32750891  0.67668164  0.33607749     0.02000
H147        H  0.34658376  0.72378742  0.27526533     0.16600
H148        H  0.33970128  0.68144972  0.20253067     0.16400
C149        C  0.18199739  0.80083923  0.75468789     0.88200
C150        C  0.19996765  0.80549226  0.77257223    -0.52000
C151        C  0.19964911  0.81590854  0.80758516     0.11100
C152        C  0.18113231  0.82118473  0.82133341     0.22100
C153        C  0.17181620  0.79338497  0.79245543    -0.52800
C154        C  0.17121896  0.80395890  0.82714261     0.11200
C155        C  0.17352630  0.81878539  0.74674263    -0.52300
C156        C  0.17287864  0.82923691  0.78166005     0.11800
H157        H  0.21198682  0.80039362  0.75944275     0.16300
H158        H  0.18073460  0.82979305  0.84955380     0.02000
H159        H  0.16502507  0.78099760  0.79108470     0.16600
H160        H  0.16845637  0.82348224  0.71709046     0.16400
C161        C  0.33244842  0.79997063  0.01353430     0.88200
C162        C  0.31454215  0.80259195  0.99335348    -0.52000
C163        C  0.31449806  0.81226790  0.95717167     0.11100
C164        C  0.33260277  0.81931846  0.94517274     0.22100
C165        C  0.34413294  0.79315370  0.97777075    -0.52800
C166        C  0.34445705  0.80325401  0.94230676     0.11200
C167        C  0.33891398  0.81880875  0.02091628    -0.52300
C168        C  0.33902410  0.82886301  0.98498860     0.11800
H169        H  0.30276489  0.79706534  0.00678004     0.16300
H170        H  0.33269859  0.82748293  0.91620866     0.02000
H171        H  0.35171419  0.78128516  0.98063349     0.16600
H172        H  0.34326812  0.82409246  0.05069749     0.16400
O173        O  0.08065729  0.73733447  0.19419265    -0.56100
C174        C  0.05145956  0.72770094  0.11214822     0.76500
O175        O  0.06037351  0.77879857  0.19546751    -0.57300
C176        C  0.09338542  0.74635543  0.20695380     0.76500
C177        C  0.09296594  0.76963624  0.07015997     0.78900
Cd178      Cd  0.07093563  0.75831578  0.13976659     1.37500
O179        O  0.06639191  0.73150639  0.09830147    -0.56100
O180        O  0.09901494  0.76388367  0.10458321    -0.54900
C181        C  0.05131430  0.78833993  0.17157092     0.78800
O182        O  0.07656822  0.77028593  0.06781582    -0.57300
O183        O  0.04518820  0.73823856  0.13897807    -0.55700
O184        O  0.09556027  0.76083489  0.18861927    -0.55700
O185        O  0.05079735  0.78370237  0.13317152    -0.54900
O186        O  0.46297248  0.76416362  0.59576431    -0.56100
C187        C  0.41797747  0.76173942  0.69843656     0.76500
O188        O  0.43174111  0.74084930  0.55093301    -0.57300
C189        C  0.45547013  0.77863572  0.58991219     0.76500
C190        C  0.45771262  0.71890917  0.65653076     0.78900
Cd191      Cd  0.43737820  0.74872561  0.62588057     1.37500
O192        O  0.43334271  0.76655064  0.69051507    -0.56100
O193        O  0.46067804  0.73431806  0.66853901    -0.54900
C194        C  0.41580136  0.73729112  0.55587456     0.78800
O195        O  0.44545057  0.71728277  0.63032778    -0.57300
O196        O  0.41161664  0.75068165  0.67315941    -0.55700
O197        O  0.43958024  0.77914673  0.60009231    -0.55700
O198        O  0.40988248  0.73931436  0.59295038    -0.54900
C199        C  0.55913203  0.88938286  0.50031630     0.88200
C200        C  0.55458995  0.90141235  0.46275296    -0.52000
C201        C  0.53769595  0.90688001  0.46210237     0.11100
C202        C  0.52675582  0.90000924  0.49940702     0.22100
C203        C  0.55378610  0.90031748  0.53920147    -0.52800
C204        C  0.53690617  0.90582574  0.53883435     0.11200
C205        C  0.54568592  0.87467894  0.49821064    -0.52300
C206        C  0.52882107  0.88008198  0.49824107     0.11800
H207        H  0.56369893  0.90631167  0.43969125     0.16300
H208        H  0.51302989  0.90446313  0.49928087     0.02000
H209        H  0.56275692  0.90384222  0.56429683     0.16600
H210        H  0.54924353  0.86099904  0.49926587     0.16400
C211        C  0.39285431  0.94924324  0.00409001     0.88200
C212        C  0.40697528  0.95380000  0.97151810    -0.52000
C213        C  0.41176713  0.97091298  0.97142247     0.11100
C214        C  0.40212417  0.98211383  0.00430072     0.22100
C215        C  0.40083454  0.95556982  0.04623605    -0.52800
C216        C  0.40580028  0.97273584  0.04694384     0.11200
C217        C  0.37802687  0.96205153  0.99522999    -0.52300
C218        C  0.38278656  0.97907808  0.99448291     0.11800
H219        H  0.41275782  0.94426850  0.95036275     0.16300
H220        H  0.40566265  0.99608788  0.00331019     0.02000
H221        H  0.40470718  0.94703194  0.07147688     0.16600
H222        H  0.36487830  0.95789207  0.98782468     0.16400
C223        C  0.50360468  0.00168373  0.25480887    -0.00800
C224        C  0.61287288  0.05814215  0.01111626     0.88200
C225        C  0.60047583  0.05410670  0.97419744    -0.52000
C226        C  0.59615885  0.03691667  0.97013465     0.11100
C227        C  0.60468971  0.02510349  0.00364334     0.22100
C228        C  0.60336970  0.05048801  0.04983225    -0.52800
C229        C  0.59910554  0.03325035  0.04633826     0.11200
C230        C  0.62840965  0.04599020  0.00451000    -0.52300
C231        C  0.62429099  0.02888352  0.99964851     0.11800
H232        H  0.59544942  0.06408331  0.95315301     0.16300
H233        H  0.60135136  0.01111990  0.00021668     0.02000
H234        H  0.59879351  0.05786204  0.07652372     0.16600
H235        H  0.64168661  0.05069652  0.00198765     0.16400
C236        C  0.50498032  0.99887364  0.75405667    -0.00800
C237        C  0.45042345  0.11204798  0.50293192     0.88200
C238        C  0.45776779  0.10313160  0.46265985    -0.52000
C239        C  0.47448876  0.09717525  0.46661596     0.11100
C240        C  0.48257721  0.10100889  0.51037557     0.22100
C241        C  0.45312668  0.09821424  0.53771100    -0.52800
C242        C  0.46985453  0.09251507  0.54172747     0.11200
C243        C  0.46370083  0.12636899  0.51278846    -0.52300
C244        C  0.48033242  0.12074870  0.51733436     0.11800
H245        H  0.45052775  0.10030495  0.43434565     0.16300
H246        H  0.49617821  0.09639636  0.51378357     0.02000
H247        H  0.44263532  0.09330055  0.55742226     0.16600
H248        H  0.46010055  0.13990023  0.51761611     0.16400
C249        C  0.11484066  0.56404832  0.49801003     0.88200
C250        C  0.10246303  0.55904431  0.46169743    -0.52000
C251        C  0.09817309  0.54170855  0.45938771     0.11100
C252        C  0.10595326  0.53115755  0.49678623     0.22100
C253        C  0.10472757  0.55807367  0.53751118    -0.52800
C254        C  0.10008122  0.54094624  0.53718547     0.11200
C255        C  0.13015625  0.55140297  0.49437232    -0.52300
C256        C  0.12567377  0.53426438  0.49382118     0.11800
H257        H  0.09714923  0.56883256  0.44071154     0.16300
H258        H  0.10289344  0.51714519  0.49772869     0.02000
H259        H  0.09991307  0.56684842  0.56254047     0.16600
H260        H  0.14350925  0.55577492  0.49127052     0.16400
C261        C  0.89744877  0.44878929  0.49822049     0.88200
C262        C  0.90850703  0.45388440  0.45925568    -0.52000
C263        C  0.91432837  0.47071013  0.45956521     0.11100
C264        C  0.90849090  0.48108299  0.49878753     0.22100
C265        C  0.90875907  0.45337003  0.53633841    -0.52800
C266        C  0.91487106  0.47006029  0.53676691     0.11200
C267        C  0.88293646  0.46245666  0.49812114    -0.52300
C268        C  0.88850774  0.47929487  0.49853149     0.11800
H269        H  0.91128723  0.44550573  0.43272819     0.16300
H270        H  0.91304660  0.49478545  0.49890275     0.02000
H271        H  0.91189701  0.44394511  0.56079265     0.16600
H272        H  0.86926990  0.45905848  0.49550366     0.16400
C273        C  0.95134800  0.61631812  0.01066189     0.88200
C274        C  0.95526216  0.60565902  0.97051865    -0.52000
C275        C  0.97194460  0.59961783  0.96787243     0.11100
C276        C  0.98334199  0.60492862  0.00611719     0.22100
C277        C  0.95646430  0.60371193  0.04650121    -0.52800
C278        C  0.97316403  0.59768047  0.04427102     0.11200
C279        C  0.96502208  0.63064101  0.01167196    -0.52300
C280        C  0.98170059  0.62493154  0.01005319     0.11800
H281        H  0.94547516  0.60242169  0.94712390     0.16300
H282        H  0.99690337  0.60015092  0.00387645     0.02000
H283        H  0.94752236  0.59917197  0.07049517     0.16600
H284        H  0.96176587  0.64424561  0.01689548     0.16400
C285        C  0.05638449  0.38887913  0.99357540     0.88200
C286        C  0.05203461  0.40022529  0.95449750    -0.52000
C287        C  0.03567942  0.40734733  0.95497829     0.11100
C288        C  0.02499268  0.40226970  0.99464971     0.22100
C289        C  0.05288402  0.40127923  0.03084675    -0.52800
C290        C  0.03654548  0.40806117  0.03175085     0.11200
C291        C  0.04175798  0.37542868  0.99576687    -0.52300
C292        C  0.02534887  0.38215063  0.99680505     0.11800
H293        H  0.06122973  0.40380350  0.93012894     0.16300
H294        H  0.01174669  0.40798314  0.99557653     0.02000
H295        H  0.06256474  0.40454593  0.05453624     0.16600
H296        H  0.04432349  0.36158172  0.99900585     0.16400
C297        C  0.00688768  0.50724507  0.75179304    -0.00800
C298        C  0.00706511  0.50120919  0.24580598    -0.00800
C299        C  0.81899740  0.20783115  0.74961857     0.88200
C300        C  0.80091853  0.20277054  0.76644369    -0.52000
C301        C  0.80110393  0.19179600  0.80059113     0.11100
C302        C  0.81954746  0.18650054  0.81442857     0.22100
C303        C  0.82870942  0.21487726  0.78874998    -0.52800
C304        C  0.82889503  0.20384550  0.82274395     0.11200
C305        C  0.82825212  0.19038892  0.74098882    -0.52300
C306        C  0.82846628  0.17929625  0.77462118     0.11800
H307        H  0.78903100  0.20838752  0.75400838     0.16300
H308        H  0.81981787  0.17735931  0.84162940     0.02000
H309        H  0.83518985  0.22743408  0.78918173     0.16600
H310        H  0.83549975  0.18717369  0.71282286     0.16400
C311        C  0.67465729  0.20746899  0.02909787     0.88200
C312        C  0.69212220  0.20488473  0.00661210    -0.52000
C313        C  0.69153968  0.19426343  0.97207784     0.11100
C314        C  0.67336465  0.18674272  0.96339946     0.22100
C315        C  0.66202216  0.21338064  0.99416712    -0.52800
C316        C  0.66135306  0.20263086  0.95984460     0.11200
C317        C  0.66838060  0.18879619  0.03945279    -0.52300
C318        C  0.66766515  0.17806404  0.00493120     0.11800
H319        H  0.70399125  0.21124572  0.01693526     0.16300
H320        H  0.67277858  0.17789566  0.93565720     0.02000
H321        H  0.65427427  0.22515339  0.99647969     0.16600
H322        H  0.66325573  0.18449538  0.06948058     0.16400
O323        O  0.56645492  0.28001540  0.68195713    -0.56100
C324        C  0.59406676  0.26537248  0.57144951     0.76500
O325        O  0.57430270  0.23471016  0.70140290    -0.57300
C326        C  0.55207889  0.28413676  0.66556447     0.76500
C327        C  0.55204133  0.22349655  0.61100662     0.78900
Cd328      Cd  0.57128407  0.25378143  0.63880625     1.37500
O329        O  0.57782217  0.26779081  0.56988769    -0.56100
O330        O  0.54505407  0.23540154  0.63287544    -0.54900
C331        C  0.58880842  0.24080375  0.71291422     0.78800
O332        O  0.56780212  0.22591414  0.60107433    -0.57300
O333        O  0.59955889  0.25715384  0.60336353    -0.55700
O334        O  0.54650319  0.27413572  0.63684883    -0.55700
O335        O  0.59482563  0.25305765  0.69056825    -0.54900
C336        C  0.82689897  0.30324877  0.52324022     0.88200
C337        C  0.80928337  0.30805264  0.50365604    -0.52000
C338        C  0.81026260  0.31884853  0.46961719     0.11100
C339        C  0.82887235  0.32445909  0.45821546     0.22100
C340        C  0.83790238  0.29637517  0.48606587    -0.52800
C341        C  0.83898838  0.30738490  0.45221689     0.11200
C342        C  0.83514022  0.32113887  0.53348562    -0.52300
C343        C  0.83634912  0.33208442  0.49941091     0.11800
H344        H  0.79700812  0.30267644  0.51455971     0.16300
H345        H  0.82972836  0.33332892  0.43052146     0.02000
H346        H  0.84439815  0.28383217  0.48663671     0.16600
H347        H  0.83971329  0.32537942  0.56401599     0.16400
C348        C  0.68163426  0.30030066  0.25923922     0.88200
C349        C  0.69958622  0.30517736  0.27756507    -0.52000
C350        C  0.69883141  0.31625204  0.31134558     0.11100
C351        C  0.68032559  0.32140956  0.32424186     0.22100
C352        C  0.67195963  0.29291134  0.29797491    -0.52800
C353        C  0.67100650  0.30397489  0.33161064     0.11200
C354        C  0.67274991  0.31776279  0.24997541    -0.52300
C355        C  0.67214337  0.32882444  0.28376520     0.11800
H356        H  0.71181593  0.29944708  0.26803204     0.16300
H357        H  0.67979884  0.33036588  0.35181471     0.02000
H358        H  0.66606400  0.28007166  0.29852531     0.16600
H359        H  0.66744643  0.32110579  0.21919848     0.16400
O360        O  0.92166236  0.24204280  0.05881908    -0.56100
C361        C  0.94978376  0.22309313  0.15688964     0.76500
O362        O  0.94287938  0.27299602  0.07526560    -0.57300
C363        C  0.90541582  0.24150674  0.06491973     0.76500
C364        C  0.91008588  0.26729867  0.20062902     0.78900
Cd365      Cd  0.92966171  0.25363051  0.12975030     1.37500
O366        O  0.93346937  0.22390438  0.16087528    -0.56100
O367        O  0.92295812  0.25725601  0.20550935    -0.54900
C368        C  0.94962147  0.28396006  0.10016784     0.78800
O369        O  0.90638343  0.27125825  0.16280387    -0.57300
O370        O  0.95678936  0.23623156  0.13973345    -0.55700
O371        O  0.90038356  0.24645674  0.10108165    -0.55700
O372        O  0.94770000  0.28072375  0.13915242    -0.54900
C373        C  0.61497867  0.44778521  0.25960695     0.88200
C374        C  0.60162795  0.45120404  0.29526360    -0.52000
C375        C  0.59506929  0.46778756  0.29606585     0.11100
C376        C  0.60227635  0.47948492  0.26051082     0.22100
C377        C  0.60494341  0.45283636  0.21925184    -0.52800
C378        C  0.59822280  0.46927952  0.21961280     0.11200
C379        C  0.62864372  0.46213721  0.26476378    -0.52300
C380        C  0.62214588  0.47859752  0.26550392     0.11800
H381        H  0.59785929  0.44137440  0.31820720     0.16300
H382        H  0.59692212  0.49289403  0.26097654     0.02000
H383        H  0.60220293  0.44429469  0.19312032     0.16600
H384        H  0.64238465  0.45944446  0.26913653     0.16400
C385        C  0.56400364  0.61203565  0.75974052     0.88200
C386        C  0.55888617  0.60048121  0.79773716    -0.52000
C387        C  0.54244567  0.59372909  0.79562418     0.11100
C388        C  0.53237142  0.59942707  0.75564741     0.22100
C389        C  0.56065564  0.60015649  0.72133555    -0.52800
C390        C  0.54421210  0.59347395  0.71895292     0.11200
C391        C  0.54976304  0.62587532  0.75770072    -0.52300
C392        C  0.53333161  0.61953213  0.75489746     0.11800
H393        H  0.56736882  0.59682342  0.82333403     0.16300
H394        H  0.51899104  0.59411745  0.75415704     0.02000
H395        H  0.57058437  0.59738190  0.69784528     0.16600
H396        H  0.55256467  0.63971885  0.75550598     0.16400
C397        C  0.39114874  0.55586503  0.26469938     0.88200
C398        C  0.40295148  0.55175571  0.30301293    -0.52000
C399        C  0.40989510  0.53537053  0.30250354     0.11100
C400        C  0.40466966  0.52453694  0.26368990     0.22100
C401        C  0.40317371  0.55227101  0.22657495    -0.52800
C402        C  0.41015732  0.53590842  0.22573162     0.11200
C403        C  0.37777313  0.54116036  0.26411113    -0.52300
C404        C  0.38464636  0.52478828  0.26398882     0.11800
H405        H  0.40607034  0.56105232  0.32770863     0.16300
H406        H  0.41038859  0.51126783  0.26356474     0.02000
H407        H  0.40666476  0.56197697  0.20318147     0.16600
H408        H  0.36388366  0.54357013  0.26610114     0.16400
C409        C  0.44686152  0.39215015  0.76784228     0.88200
C410        C  0.45245743  0.40224541  0.80768319    -0.52000
C411        C  0.46937922  0.40752011  0.80710114     0.11100
C412        C  0.47933801  0.40237614  0.76651217     0.22100
C413        C  0.45135489  0.40487196  0.73171054    -0.52800
C414        C  0.46843150  0.40987213  0.72991975     0.11200
C415        C  0.46005653  0.37735962  0.76363745    -0.52300
C416        C  0.47695682  0.38257993  0.76272156     0.11800
H417        H  0.44378070  0.40665741  0.83239693     0.16300
H418        H  0.49318453  0.40633387  0.76645395     0.02000
H419        H  0.44168874  0.40954267  0.70946998     0.16600
H420        H  0.45624024  0.36383945  0.75960637     0.16400
C421        C  0.50416255  0.50261867  0.01309201    -0.00800
C422        C  0.50254687  0.50063933  0.51255230    -0.00800
C423        C  0.30223880  0.17835029  0.49767809     0.88200
C424        C  0.32031586  0.17054043  0.48822659    -0.52000
C425        C  0.33125205  0.17008195  0.52231887     0.11100
C426        C  0.32310019  0.17752374  0.56329050     0.22100
C427        C  0.29565338  0.16717384  0.53475141    -0.52800
C428        C  0.30641969  0.16670585  0.56898923     0.11200
C429        C  0.30603233  0.19621870  0.51711611    -0.52300
C430        C  0.31657346  0.19597198  0.55182936     0.11800
H431        H  0.32407912  0.16437057  0.45896075     0.16300
H432        H  0.33188206  0.17714943  0.59112314     0.02000
H433        H  0.28339024  0.16018224  0.53392592     0.16600
H434        H  0.30007575  0.20810608  0.50546546     0.16400
C435        C  0.30011791  0.32387924  0.77431950     0.88200
C436        C  0.31779371  0.33245638  0.78374676    -0.52000
C437        C  0.32855110  0.33378417  0.74938625     0.11100
C438        C  0.32082321  0.32611116  0.70851528     0.22100
C439        C  0.29270005  0.33437357  0.73708963    -0.52800
C440        C  0.30347482  0.33571956  0.70297984     0.11200
C441        C  0.30520795  0.30613183  0.75464661    -0.52300
C442        C  0.31576879  0.30729232  0.71996291     0.11800
H443        H  0.32138717  0.33730738  0.81480650     0.16300
H444        H  0.32952032  0.32712762  0.68053816     0.02000
H445        H  0.28010350  0.34073733  0.73826817     0.16600
H446        H  0.30116650  0.29351877  0.76574868     0.16400
O447        O  0.26776253  0.04567826  0.89470422    -0.56100
C448        C  0.26512427  0.09433494  0.81525953     0.76500
O449        O  0.23059485  0.06195978  0.82573007    -0.57300
C450        C  0.28157712  0.05325703  0.90633381     0.76500
C451        C  0.23813148  0.09324453  0.95098896     0.78900
Cd452      Cd  0.25094530  0.07258504  0.88098986     1.37500
O453        O  0.26960261  0.07860910  0.81986282    -0.56100
O454        O  0.24677218  0.07944216  0.95660215    -0.54900
C455        C  0.22163483  0.05239856  0.84991814     0.78800
O456        O  0.23546546  0.09746631  0.91289731    -0.57300
O457        O  0.25375405  0.09992221  0.84084554    -0.55700
O458        O  0.28104315  0.06971073  0.90704943    -0.55700
O459        O  0.22665443  0.05171886  0.88793943    -0.54900
C460        C  0.20906802  0.18118902  0.26741739     0.88200
C461        C  0.19145359  0.17268226  0.27798474    -0.52000
C462        C  0.17996660  0.17165443  0.24472215     0.11100
C463        C  0.18748897  0.17956730  0.20357915     0.22100
C464        C  0.21590998  0.17064018  0.22950142    -0.52800
C465        C  0.20457176  0.16960639  0.19652162     0.11200
C466        C  0.20461144  0.19889186  0.24750021    -0.52300
C467        C  0.19312131  0.19820214  0.21483960     0.11800
H468        H  0.18904695  0.16699677  0.30880249     0.16300
H469        H  0.17864902  0.17937064  0.17610320     0.02000
H470        H  0.22844209  0.16414405  0.22907432     0.16600
H471        H  0.21128681  0.21091776  0.25436358     0.16400
C472        C  0.20663842  0.32950672  0.00396765     0.88200
C473        C  0.18805974  0.33592669  0.99356529    -0.52000
C474        C  0.17683571  0.33557029  0.02724781     0.11100
C475        C  0.18498975  0.32845166  0.06814864     0.22100
C476        C  0.21212491  0.34060856  0.04200352    -0.52800
C477        C  0.20088719  0.34020653  0.07539345     0.11200
C478        C  0.20364027  0.31117594  0.02213287    -0.52300
C479        C  0.19257890  0.31064186  0.05577166     0.11800
H480        H  0.18352537  0.34014055  0.96294257     0.16300
H481        H  0.17588699  0.32803889  0.09543504     0.02000
H482        H  0.22402803  0.34821346  0.04236450     0.16600
H483        H  0.21017612  0.29962419  0.01032192     0.16400
O484        O  0.22628362  0.43814112  0.42857211    -0.56100
C485        C  0.23914838  0.41260772  0.32288544     0.76500
O486        O  0.27915930  0.45378992  0.39517429    -0.57300
C487        C  0.22444351  0.45391489  0.41797490     0.76500
C488        C  0.26626854  0.41190447  0.45895521     0.78900
Cd489      Cd  0.25406739  0.43341330  0.38976397     1.37500
O490        O  0.23426498  0.42810674  0.32948577    -0.56100
O491        O  0.26260128  0.40572483  0.42299284    -0.54900
C492        C  0.28512693  0.45121920  0.35841842     0.78800
O493        O  0.26406499  0.42812753  0.46314601    -0.57300
O494        O  0.25095399  0.40694151  0.34704780    -0.55700
O495        O  0.23633521  0.46014554  0.39472409    -0.55700
O496        O  0.27641792  0.44090678  0.33566036    -0.54900
C497        C  0.20633773  0.35348108  0.19026485     0.14400
C498        C  0.21166111  0.37090919  0.18600269     0.01300
C499        C  0.21245475  0.37839577  0.14552243     0.16300
C500        C  0.20852676  0.36850602  0.10976429     0.25700
C501        C  0.20368386  0.35091593  0.11379001    -0.40600
C502        C  0.20227895  0.34357616  0.15440484     0.32800
C503        C  0.21769384  0.38098965  0.22308737     0.01400
F504        F  0.21776194  0.39512408  0.14046719    -0.12900
F505        F  0.19775264  0.32663343  0.15934783    -0.13400
C506        C  0.23216101  0.37524565  0.24614453     0.16300
C507        C  0.23902806  0.38543901  0.27868420     0.25700
C508        C  0.23156075  0.40167066  0.28885271    -0.40600
C509        C  0.21687969  0.40729645  0.26595488     0.32700
C510        C  0.21000183  0.39701035  0.23347336     0.14400
F511        F  0.24012432  0.36004415  0.23592537    -0.12900
F512        F  0.20918987  0.42278661  0.27470156    -0.13400
F513        F  0.25333295  0.37957338  0.29931252    -0.15700
F514        F  0.19586866  0.40273914  0.21190120    -0.14300
F515        F  0.20534949  0.34599504  0.22912476    -0.14300
F516        F  0.20955420  0.37613899  0.07107298    -0.15700
C517        C  0.17419488  0.26758098  0.09300783     0.14400
C518        C  0.18633884  0.26283392  0.12413530     0.01300
C519        C  0.20031603  0.27405789  0.13295144     0.16300
C520        C  0.20214364  0.28972443  0.11097412     0.25700
C521        C  0.18990766  0.29454408  0.08030050    -0.40600
C522        C  0.17601937  0.28333835  0.07110679     0.32800
C523        C  0.18504059  0.24596113  0.14660386     0.01400
F524        F  0.21253446  0.26953843  0.16190169    -0.12900
F525        F  0.16459707  0.28738322  0.03997891    -0.13400
C526        C  0.18649249  0.23018403  0.12434373     0.16300
C527        C  0.18820509  0.21441154  0.14625733     0.25700
C528        C  0.18831553  0.21419494  0.19084690    -0.40600
C529        C  0.18551321  0.22992294  0.21282151     0.32700
C530        C  0.18403722  0.24563061  0.19092954     0.14400
F531        F  0.18741359  0.23017192  0.08142460    -0.12900
F532        F  0.18468147  0.23017214  0.25576021    -0.13400
F533        F  0.19101054  0.19964414  0.12374794    -0.15700
F534        F  0.18215189  0.26065166  0.21311507    -0.14300
F535        F  0.16063256  0.25694659  0.08381466    -0.14300
F536        F  0.21616391  0.29996869  0.11869125    -0.15700
C537        C  0.21642559  0.12954083  0.01340570     0.14400
C538        C  0.22070617  0.12502693  0.05517353     0.01300
C539        C  0.23016500  0.10971277  0.06269050     0.16300
C540        C  0.23560878  0.09926995  0.02895723     0.25700
C541        C  0.23168291  0.10393252  0.98688302    -0.40600
C542        C  0.22181861  0.11911094  0.97956641     0.32800
C543        C  0.21593506  0.13663951  0.09075051     0.01400
F544        F  0.23467117  0.10516100  0.10272331    -0.12900
F545        F  0.21746975  0.12401976  0.93968233    -0.13400
C546        C  0.20595643  0.13037047  0.12482988     0.16300
C547        C  0.20218496  0.14119888  0.15920577     0.25700
C548        C  0.20798025  0.15851675  0.15947931    -0.40600
C549        C  0.21787094  0.16483681  0.12554802     0.32700
C550        C  0.22189158  0.15395591  0.09144450     0.14400
F551        F  0.19989736  0.11377083  0.12479999    -0.12900
F552        F  0.22395800  0.18141688  0.12597389    -0.13400
F553        F  0.19325359  0.13467506  0.19274074    -0.15700
F554        F  0.23209480  0.16013219  0.05973127    -0.14300
F555        F  0.20698823  0.14410099  0.00539785    -0.14300
F556        F  0.24503230  0.08477474  0.03764024    -0.15700
C557        C  0.26551003  0.31159396  0.85915729     0.14400
C558        C  0.26225756  0.32780107  0.87762495     0.01300
C559        C  0.27152537  0.34237262  0.86359628     0.16300
C560        C  0.28396569  0.34072777  0.83145878     0.25700
C561        C  0.28742036  0.32440624  0.81214065    -0.40600
C562        C  0.27766400  0.30985315  0.82650830     0.32800
C563        C  0.24849616  0.32942548  0.91006004     0.01400
F564        F  0.26836415  0.35827119  0.88072457    -0.12900
F565        F  0.27860547  0.29403504  0.80800606    -0.13400
C566        C  0.25067281  0.32188079  0.94997344     0.16300
C567        C  0.23718677  0.32224666  0.97958729     0.25700
C568        C  0.22088088  0.32981686  0.96974353    -0.40600
C569        C  0.21915735  0.33806696  0.92978763     0.32700
C570        C  0.23280329  0.33773126  0.90042048     0.14400
F571        F  0.26596492  0.31418776  0.96034993    -0.12900
F572        F  0.20480596  0.34712308  0.91877705    -0.13400
F573        F  0.24015811  0.31518175  0.01832587    -0.15700
F574        F  0.23059844  0.34538317  0.86205841    -0.14300
F575        F  0.25618489  0.29745292  0.87145135    -0.14300
F576        F  0.29224781  0.35535318  0.81814374    -0.15700
C577        C  0.27794281  0.35495124  0.61183564     0.14400
C578        C  0.28933405  0.36789619  0.59697871     0.01300
C579        C  0.30563284  0.36988900  0.61643011     0.16300
C580        C  0.31043672  0.35913516  0.65025470     0.25700
C581        C  0.29894590  0.34632227  0.66537228    -0.40600
C582        C  0.28269101  0.34428779  0.64575473     0.32800
C583        C  0.28411117  0.37928808  0.56129003     0.01400
F584        F  0.31691402  0.38222501  0.60253989    -0.12900
F585        F  0.27143245  0.33186583  0.65930734    -0.13400
C586        C  0.28298867  0.39740810  0.56663299     0.16300
C587        C  0.27734063  0.40804387  0.53339174     0.25700
C588        C  0.27270515  0.40074378  0.49402732    -0.40600
C589        C  0.27424396  0.38258585  0.48858373     0.32700
C590        C  0.27984240  0.37200742  0.52189686     0.14400
F591        F  0.28697231  0.40478552  0.60444420    -0.12900
F592        F  0.27028329  0.37495217  0.45106241    -0.13400
F593        F  0.27635925  0.42547804  0.53996553    -0.15700
F594        F  0.28124503  0.35458499  0.51556750    -0.14300
F595        F  0.26202823  0.35289475  0.59404527    -0.14300
F596        F  0.32604635  0.36169147  0.66919589    -0.15700
C597        C  0.23935341  0.19633805  0.35848646     0.14400
C598        C  0.24738254  0.18066092  0.36957898     0.01300
C599        C  0.24172747  0.16516050  0.35071052     0.16300
C600        C  0.22887745  0.16545271  0.31939749     0.25700
C601        C  0.22165054  0.18135461  0.30530835    -0.40600
C602        C  0.22636999  0.19671307  0.32761259     0.32800
C603        C  0.26150452  0.18047807  0.40130692     0.01400
F604        F  0.24858766  0.14968347  0.36292298    -0.12900
F605        F  0.21796252  0.21202882  0.32227212    -0.13400
C606        C  0.25820881  0.18521912  0.44332652     0.16300
C607        C  0.27155231  0.18495170  0.47325726     0.25700
C608        C  0.28859336  0.17958301  0.46221694    -0.40600
C609        C  0.29193978  0.17585236  0.41900003     0.32700
C610        C  0.27847175  0.17611356  0.38924022     0.14400
F611        F  0.24194601  0.18989555  0.45555793    -0.12900
F612        F  0.30814098  0.17279654  0.40416173    -0.13400
F613        F  0.26772062  0.18987200  0.51350536    -0.15700
F614        F  0.28211220  0.17256051  0.34806518    -0.14300
F615        F  0.24415676  0.21142473  0.37759146    -0.14300
F616        F  0.22353332  0.15008537  0.30265735    -0.15700
C617        C  0.29842850  0.15340728  0.68302452     0.14400
C618        C  0.29229959  0.13626783  0.67804020     0.01300
C619        C  0.29159091  0.12901987  0.63722871     0.16300
C620        C  0.29668043  0.13877022  0.60205866     0.25700
C621        C  0.30237312  0.15605987  0.60686544    -0.40600
C622        C  0.30340610  0.16324067  0.64767750     0.32800
C623        C  0.28615543  0.12603894  0.71497262     0.01400
F624        F  0.28545000  0.11263355  0.63122370    -0.12900
F625        F  0.30855412  0.17998299  0.65321242    -0.13400
C626        C  0.27293166  0.13253830  0.74131654     0.16300
C627        C  0.26640839  0.12246374  0.77461850     0.25700
C628        C  0.27270788  0.10548192  0.78163393    -0.40600
C629        C  0.28623414  0.09916590  0.75572412     0.32700
C630        C  0.29294075  0.10938668  0.72296773     0.14400
F631        F  0.26586430  0.14843357  0.73388106    -0.12900
F632        F  0.29302264  0.08305614  0.76187767    -0.13400
F633        F  0.25369350  0.12928105  0.79940760    -0.15700
F634        F  0.30611425  0.10298265  0.69895264    -0.14300
F635        F  0.29953440  0.16063508  0.72213912    -0.14300
F636        F  0.29606646  0.13126694  0.56317171    -0.15700
C637        C  0.33677393  0.23379124  0.61325062     0.14400
C638        C  0.32191374  0.24357787  0.62385027     0.01300
C639        C  0.30548901  0.23709136  0.61278540     0.16300
C640        C  0.30389107  0.22142484  0.59064790     0.25700
C641        C  0.31870436  0.21180601  0.57877879    -0.40600
C642        C  0.33517819  0.21796666  0.59098273     0.32800
C643        C  0.32314149  0.26048782  0.64675042     0.01400
F644        F  0.29089228  0.24593715  0.62377292    -0.12900
F645        F  0.34971485  0.20905589  0.57993044    -0.13400
C646        C  0.31736710  0.27592571  0.62733709     0.16300
C647        C  0.31598289  0.29141198  0.65060451     0.25700
C648        C  0.32015030  0.29172324  0.69390130    -0.40600
C649        C  0.32659289  0.27644778  0.71292731     0.32700
C650        C  0.32819915  0.26100946  0.68946080     0.14400
F651        F  0.31244667  0.27582730  0.58609480    -0.12900
F652        F  0.33088138  0.27636099  0.75459673    -0.13400
F653        F  0.30937094  0.30577755  0.63150065    -0.15700
F654        F  0.33377692  0.24632043  0.70905545    -0.14300
F655        F  0.35281244  0.23983407  0.62333741    -0.14300
F656        F  0.28773033  0.21555087  0.58104117    -0.15700
C657        C  0.48314107  0.42639000  0.91264435     0.14400
C658        C  0.48459866  0.44424604  0.90279011     0.01300
C659        C  0.48193871  0.44953661  0.86051783     0.16300
C660        C  0.47696380  0.43753533  0.82971571     0.25700
C661        C  0.47601888  0.41977458  0.83929360    -0.40600
C662        C  0.47922815  0.41423162  0.88090439     0.32800
C663        C  0.48812557  0.45758167  0.93610856     0.01400
F664        F  0.48380859  0.46646065  0.84897679    -0.12900
F665        F  0.47791407  0.39711500  0.89107769    -0.13400
C666        C  0.50153621  0.45553980  0.96589804     0.16300
C667        C  0.50553057  0.46891637  0.99455200     0.25700
C668        C  0.49782740  0.48564248  0.99032255    -0.40600
C669        C  0.48326665  0.48683164  0.96286370     0.32700
C670        C  0.47824843  0.47291844  0.93738761     0.14400
F671        F  0.51126955  0.44081800  0.96656315    -0.12900
F672        F  0.47440262  0.50195714  0.95837335    -0.13400
F673        F  0.51665048  0.46503502  0.02636787    -0.15700
F674        F  0.46391560  0.47474732  0.91275686    -0.14300
F675        F  0.48462955  0.42076995  0.95320083    -0.14300
F676        F  0.47184469  0.44346570  0.79128932    -0.15700
C677        C  0.48090438  0.47340164  0.60062403     0.14400
C678        C  0.48917726  0.45730147  0.59737083     0.01300
C679        C  0.50041459  0.45414883  0.56335328     0.16300
C680        C  0.50418732  0.46734672  0.53406534     0.25700
C681        C  0.49735679  0.48440001  0.53954641    -0.40600
C682        C  0.48470965  0.48667048  0.57202817     0.32800
C683        C  0.48570706  0.44384608  0.62957073     0.01400
F684        F  0.50784491  0.43824532  0.55865765    -0.12900
F685        F  0.47683190  0.50225689  0.57814406    -0.13400
C686        C  0.47401576  0.43035683  0.62108053     0.16300
C687        C  0.46896110  0.41894360  0.65327141     0.25700
C688        C  0.47548091  0.42087298  0.69480218    -0.40600
C689        C  0.48836013  0.43360961  0.70208909     0.32700
C690        C  0.49310661  0.44521898  0.66995627     0.14400
F691        F  0.46705040  0.42860809  0.58186382    -0.12900
F692        F  0.49612871  0.43530052  0.74030910    -0.13400
F693        F  0.45781342  0.40586354  0.64349655    -0.15700
F694        F  0.50468626  0.45808670  0.67847251    -0.14300
F695        F  0.46928373  0.47639194  0.63220360    -0.14300
F696        F  0.51395389  0.46293585  0.50002444    -0.15700
C697        C  0.40593817  0.37075388  0.72193140     0.14400
C698        C  0.39508977  0.36894807  0.75736412     0.01300
C699        C  0.40097374  0.37499104  0.79676521     0.16300
C700        C  0.41734653  0.38273543  0.80085385     0.25700
C701        C  0.42827869  0.38494362  0.76513779    -0.40600
C702        C  0.42237325  0.37830947  0.72585809     0.32800
C703        C  0.37795027  0.36012924  0.75385207     0.01400
F704        F  0.39115652  0.37260849  0.83204432    -0.12900
F705        F  0.43276824  0.37864336  0.69108420    -0.13400
C706        C  0.37666206  0.34324877  0.73673456     0.16300
C707        C  0.36057545  0.33475023  0.73490618     0.25700
C708        C  0.34557170  0.34282031  0.75090516    -0.40600
C709        C  0.34682671  0.35970890  0.76781188     0.32700
C710        C  0.36282396  0.36833836  0.76889122     0.14400
F711        F  0.39107270  0.33475528  0.72299862    -0.12900
F712        F  0.33246188  0.36804141  0.78238167    -0.13400
F713        F  0.35976751  0.31837557  0.71888868    -0.15700
F714        F  0.36351299  0.38484327  0.78416575    -0.14300
F715        F  0.40066102  0.36512634  0.68329106    -0.14300
F716        F  0.42265674  0.38667048  0.84053866    -0.15700
C717        C  0.46349673  0.52594012  0.06216114     0.14400
C718        C  0.46018348  0.51536982  0.09748234     0.01300
C719        C  0.46998981  0.50019921  0.10294928     0.16300
C720        C  0.48337254  0.49605960  0.07474469     0.25700
C721        C  0.48808523  0.50747712  0.04115297    -0.40600
C722        C  0.47709404  0.52206933  0.03414293     0.32800
C723        C  0.44707552  0.52058460  0.12967426     0.01400
F724        F  0.46714124  0.48971341  0.13686092    -0.12900
F725        F  0.47858740  0.53223698  0.99928163    -0.13400
C726        C  0.43323359  0.50948458  0.14069262     0.16300
C727        C  0.42136360  0.51432116  0.17233882     0.25700
C728        C  0.42300838  0.53042679  0.19309616    -0.40600
C729        C  0.43693335  0.54145241  0.18214468     0.32700
C730        C  0.44881726  0.53657413  0.15080846     0.14400
F731        F  0.43103889  0.49410127  0.12024850    -0.12900
F732        F  0.43939682  0.55675849  0.20275254    -0.13400
F733        F  0.40799187  0.50347597  0.18184848    -0.15700
F734        F  0.46236474  0.54729558  0.14186940    -0.14300
F735        F  0.45332816  0.54001933  0.05441572    -0.14300
F736        F  0.49252651  0.48125781  0.08197551    -0.15700
C737        C  0.46587023  0.49606993  0.43009491     0.14400
C738        C  0.45700315  0.51190978  0.43316060     0.01300
C739        C  0.46088435  0.52312912  0.46692564     0.16300
C740        C  0.47460595  0.51941042  0.49468820     0.25700
C741        C  0.48529475  0.50456929  0.48819259    -0.40600
C742        C  0.47952671  0.49227069  0.45758571     0.32800
C743        C  0.44457304  0.51716721  0.39959796     0.01400
F744        F  0.45176503  0.53809581  0.47217614    -0.12900
F745        F  0.48814806  0.47706368  0.45164130    -0.13400
C746        C  0.42722390  0.52123975  0.40939911     0.16300
C747        C  0.41595967  0.52723764  0.37779500     0.25700
C748        C  0.42175186  0.52885543  0.33578391    -0.40600
C749        C  0.43890251  0.52422263  0.32565051     0.32700
C750        C  0.45028411  0.51862521  0.35737217     0.14400
F751        F  0.42115382  0.51918961  0.44945056    -0.12900
F752        F  0.44480327  0.52567946  0.28528104    -0.13400
F753        F  0.39927752  0.53116436  0.38797744    -0.15700
F754        F  0.46706254  0.51511033  0.34710241    -0.14300
F755        F  0.46167465  0.48444343  0.39938472    -0.14300
F756        F  0.47691205  0.53027595  0.52799576    -0.15700
C757        C  0.36291268  0.48651027  0.31749856     0.14400
C758        C  0.34699035  0.48597686  0.29575693     0.01300
C759        C  0.34488779  0.49619080  0.25925538     0.16300
C760        C  0.35796255  0.50770379  0.24653781     0.25700
C761        C  0.37330471  0.50935623  0.27033242    -0.40600
C762        C  0.37601932  0.49809172  0.30482189     0.32800
C763        C  0.33197654  0.47614636  0.31307594     0.01400
F764        F  0.32966278  0.49592283  0.23763383    -0.12900
F765        F  0.39071619  0.49923567  0.32832016    -0.13400
C766        C  0.32448721  0.48116375  0.35178193     0.16300
C767        C  0.30938686  0.47301734  0.36668432     0.25700
C768        C  0.30138503  0.45967449  0.34303475    -0.40600
C769        C  0.30918905  0.45443398  0.30461880     0.32700
C770        C  0.32428950  0.46263648  0.28980418     0.14400
F771        F  0.33146547  0.49444318  0.37446771    -0.12900
F772        F  0.30228635  0.44131026  0.28130790    -0.13400
F773        F  0.30242918  0.47850847  0.40386899    -0.15700
F774        F  0.33143456  0.45740186  0.25261023    -0.14300
F775        F  0.36544797  0.47634188  0.35208569    -0.14300
F776        F  0.35527599  0.51795225  0.21215141    -0.15700
C777        C  0.51810170  0.54606443  0.55209854     0.14400
C778        C  0.52291730  0.54266652  0.59402996     0.01300
C779        C  0.52195818  0.52565418  0.60928827     0.16300
C780        C  0.51564168  0.51226217  0.58395239     0.25700
C781        C  0.50936705  0.51552374  0.54211543    -0.40600
C782        C  0.51189641  0.53262773  0.52611479     0.32800
C783        C  0.52890694  0.55667206  0.62262632     0.01400
F784        F  0.52727097  0.52189849  0.64925605    -0.12900
F785        F  0.50800483  0.53653913  0.48536986    -0.13400
C786        C  0.51732785  0.56967776  0.63587346     0.16300
C787        C  0.52221551  0.58164135  0.66709971     0.25700
C788        C  0.53888822  0.58089569  0.68541217    -0.40600
C789        C  0.55048503  0.56781364  0.67175296     0.32700
C790        C  0.54556447  0.55592801  0.64052789     0.14400
F791        F  0.50100633  0.57034057  0.61972451    -0.12900
F792        F  0.56631804  0.56590339  0.69004918    -0.13400
F793        F  0.51055075  0.59387984  0.67927456    -0.15700
F794        F  0.55694253  0.54335602  0.62845847    -0.14300
F795        F  0.51969003  0.56237970  0.53606063    -0.14300
F796        F  0.51686686  0.49603556  0.60059201    -0.15700
C797        C  0.51816652  0.54695935  0.96356692     0.14400
C798        C  0.52016494  0.54288844  0.92059365     0.01300
C799        C  0.51796965  0.52565170  0.90760539     0.16300
C800        C  0.51311601  0.51274110  0.93638204     0.25700
C801        C  0.50958035  0.51676105  0.97969860    -0.40600
C802        C  0.51336458  0.53405631  0.99283692     0.32800
C803        C  0.52574571  0.55618906  0.88929138     0.01400
F804        F  0.52098271  0.52115174  0.86667053    -0.12900
F805        F  0.51208822  0.53866283  0.03415736    -0.13400
C806        C  0.54215115  0.55483594  0.87017643     0.16300
C807        C  0.54729811  0.56670322  0.83904754     0.25700
C808        C  0.53621611  0.58040665  0.82661377    -0.40600
C809        C  0.51955613  0.58144921  0.84488488     0.32700
C810        C  0.51440647  0.56948600  0.87619034     0.14400
F811        F  0.55321333  0.54191079  0.88167825    -0.12900
F812        F  0.50839329  0.59421669  0.83307304    -0.13400
F813        F  0.56301835  0.56447933  0.82025391    -0.15700
F814        F  0.49824955  0.57067344  0.89322505    -0.14300
F815        F  0.52134960  0.56337017  0.97745554    -0.14300
F816        F  0.51326734  0.49620923  0.92137296    -0.15700
C817        C  0.57270106  0.49473641  0.38145394     0.14400
C818        C  0.55816943  0.48443673  0.39085573     0.01300
C819        C  0.55543111  0.46896755  0.36819902     0.16300
C820        C  0.56736991  0.46356947  0.33736802     0.25700
C821        C  0.58211632  0.47375401  0.32809348    -0.40600
C822        C  0.58441413  0.48960928  0.34982330     0.32800
C823        C  0.54516542  0.49027987  0.42227550     0.01400
F824        F  0.54106602  0.45918006  0.37577368    -0.12900
F825        F  0.59804850  0.50013691  0.34083268    -0.13400
C826        C  0.53022312  0.49885434  0.40862125     0.16300
C827        C  0.51707599  0.50316369  0.43722775     0.25700
C828        C  0.51788305  0.49776782  0.48046275    -0.40600
C829        C  0.53414980  0.49116205  0.49444196     0.32700
C830        C  0.54744130  0.48719494  0.46557570     0.14400
F831        F  0.52843535  0.50329045  0.36724502    -0.12900
F832        F  0.53697839  0.48762910  0.53588399    -0.13400
F833        F  0.50410460  0.51334699  0.42207981    -0.15700
F834        F  0.56241346  0.47995521  0.47982988    -0.14300
F835        F  0.57539596  0.50988565  0.40256420    -0.14300
F836        F  0.56418405  0.44869307  0.31553331    -0.15700
C837        C  0.56247630  0.47035977  0.13693092     0.14400
C838        C  0.56398502  0.48732060  0.12115303     0.01300
C839        C  0.57694431  0.49837128  0.13712539     0.16300
C840        C  0.58819558  0.49252249  0.16898693     0.25700
C841        C  0.58652554  0.47558327  0.18541672    -0.40600
C842        C  0.57354389  0.46453814  0.16885234     0.32800
C843        C  0.55054854  0.49383994  0.09196158     0.01400
F844        F  0.57853431  0.51485414  0.12216470    -0.12900
F845        F  0.57098279  0.44832400  0.18478824    -0.13400
C846        C  0.53658701  0.50325914  0.10831050     0.16300
C847        C  0.52210324  0.50683829  0.08330677     0.25700
C848        C  0.52085648  0.50040631  0.04099501    -0.40600
C849        C  0.53629103  0.49321938  0.02343492     0.32700
C850        C  0.55060223  0.48928124  0.04909618     0.14400
F851        F  0.53675017  0.50858362  0.14930953    -0.12900
F852        F  0.53712072  0.48872513  0.98197619    -0.13400
F853        F  0.50977085  0.51714870  0.10098057    -0.15700
F854        F  0.56429690  0.48050262  0.03240313    -0.14300
F855        F  0.54971000  0.45967160  0.12261822    -0.14300
F856        F  0.60081908  0.50332674  0.18337959    -0.15700
C857        C  0.63328734  0.40194314  0.23169233     0.14400
C858        C  0.64030493  0.39680414  0.27063710     0.01300
C859        C  0.63935027  0.40830108  0.30502767     0.16300
C860        C  0.63116440  0.42447453  0.30078594     0.25700
C861        C  0.62346322  0.42962609  0.26206034    -0.40600
C862        C  0.62515958  0.41810207  0.22710731     0.32800
C863        C  0.64849889  0.37939458  0.27509020     0.01400
F864        F  0.64613837  0.40377490  0.34310316    -0.12900
F865        F  0.62009069  0.42234936  0.18749604    -0.13400
C866        C  0.66572362  0.37767742  0.28945753     0.16300
C867        C  0.67334211  0.36118090  0.29307198     0.25700
C868        C  0.66399110  0.34622252  0.28147544    -0.40600
C869        C  0.64683704  0.34792676  0.26705606     0.32700
C870        C  0.63911640  0.36433417  0.26419440     0.14400
F871        F  0.67533932  0.39199526  0.29869565    -0.12900
F872        F  0.63742607  0.33362326  0.25653134    -0.13400
F873        F  0.69005171  0.35986223  0.30640915    -0.15700
F874        F  0.62235446  0.36550538  0.25119407    -0.14300
F875        F  0.63480110  0.39144641  0.19727858    -0.14300
F876        F  0.63096352  0.43527603  0.33480837    -0.15700
C877        C  0.87742716  0.29443604  0.38390884     0.14400
C878        C  0.86969527  0.29249338  0.34377161     0.01300
C879        C  0.85193662  0.29657283  0.33926559     0.16300
C880        C  0.84219877  0.30239764  0.37399860     0.25700
C881        C  0.84971786  0.30330997  0.41438987    -0.40600
C882        C  0.86747210  0.29951335  0.41893106     0.32800
C883        C  0.88008377  0.28609974  0.30694643     0.01400
F884        F  0.84379714  0.29429642  0.30157799    -0.12900
F885        F  0.87524531  0.30099409  0.45731446    -0.13400
C886        C  0.89036460  0.27100405  0.31052810     0.16300
C887        C  0.90031003  0.26511532  0.27628161     0.25700
C888        C  0.89985912  0.27387798  0.23716385    -0.40600
C889        C  0.88940463  0.28882809  0.23331424     0.32700
C890        C  0.87980647  0.29498394  0.26793537     0.14400
F891        F  0.89047499  0.26162795  0.34695337    -0.12900
F892        F  0.88874480  0.29777169  0.19628459    -0.13400
F893        F  0.91004226  0.25051956  0.28120937    -0.15700
F894        F  0.87053357  0.30989606  0.26348987    -0.14300
F895        F  0.89468730  0.29155338  0.38922975    -0.14300
F896        F  0.82526186  0.30657246  0.36829565    -0.15700
C897        C  0.77372232  0.31035675  0.39348042     0.14400
C898        C  0.76318563  0.32503181  0.39948410     0.01300
C899        C  0.76864554  0.33832602  0.42690872     0.16300
C900        C  0.78450991  0.33684031  0.44840413     0.25700
C901        C  0.79489212  0.32196868  0.44286974    -0.40600
C902        C  0.78931609  0.30871076  0.41552419     0.32800
C903        C  0.74598095  0.32556401  0.37916884     0.01400
F904        F  0.75835033  0.35238365  0.43385747    -0.12900
F905        F  0.79856101  0.29374015  0.41191404    -0.13400
C906        C  0.73156196  0.31836151  0.40006103     0.16300
C907        C  0.71584676  0.31614208  0.37856720     0.25700
C908        C  0.71445500  0.32099332  0.33583064    -0.40600
C909        C  0.72866493  0.32889593  0.31553581     0.32700
C910        C  0.74436539  0.33113793  0.33708092     0.14400
F911        F  0.73304533  0.31257624  0.44050747    -0.12900
F912        F  0.72741676  0.33403111  0.27453612    -0.13400
F913        F  0.70241336  0.30815506  0.39858348    -0.15700
F914        F  0.75821895  0.33804164  0.31641063    -0.14300
F915        F  0.76848722  0.29726692  0.36759252    -0.14300
F916        F  0.78924351  0.34940069  0.47626226    -0.15700
C917        C  0.54143165  0.32787929  0.71484597     0.14400
C918        C  0.52344126  0.32873422  0.70861601     0.01300
C919        C  0.51492888  0.31521558  0.68718764     0.16300
C920        C  0.52428597  0.30087239  0.67237620     0.25700
C921        C  0.54230129  0.29969119  0.67950004    -0.40600
C922        C  0.55080623  0.31340467  0.70071727     0.32800
C923        C  0.51332909  0.34342966  0.72558674     0.01400
F924        F  0.49749500  0.31589135  0.68088571    -0.12900
F925        F  0.56820730  0.31289526  0.70754707    -0.13400
C926        C  0.51313214  0.35949349  0.70446941     0.16300
C927        C  0.50204997  0.37279115  0.71820885     0.25700
C928        C  0.49106108  0.37010390  0.75323513    -0.40600
C929        C  0.49198972  0.35430071  0.77556004     0.32700
C930        C  0.50301069  0.34103994  0.76172782     0.14400
F931        F  0.52298063  0.36192714  0.66927059    -0.12900
F932        F  0.48181689  0.35154879  0.81006934    -0.13400
F933        F  0.50116209  0.38774731  0.69545884    -0.15700
F934        F  0.50326775  0.32564776  0.78283096    -0.14300
F935        F  0.54983170  0.34093212  0.73531421    -0.14300
F936        F  0.51560861  0.28793159  0.65216373    -0.15700
C937        C  0.63539243  0.27872288  0.51411943     0.14400
C938        C  0.62888922  0.28421133  0.47484701     0.01300
C939        C  0.61090914  0.28364391  0.46750930     0.16300
C940        C  0.59956790  0.27764082  0.49888442     0.25700
C941        C  0.60603219  0.27188680  0.53816033    -0.40600
C942        C  0.62410038  0.27256642  0.54546036     0.32800
C943        C  0.64080999  0.28990233  0.44076677     0.01400
F944        F  0.60436872  0.28845431  0.42936787    -0.12900
F945        F  0.63089095  0.26748610  0.58312377    -0.13400
C946        C  0.65325089  0.27832138  0.42446539     0.16300
C947        C  0.66344483  0.28307294  0.38970813     0.25700
C948        C  0.66137505  0.29951055  0.37071511    -0.40600
C949        C  0.64926778  0.31126852  0.38776315     0.32700
C950        C  0.63909335  0.30651150  0.42259777     0.14400
F951        F  0.65502932  0.26213156  0.44114177    -0.12900
F952        F  0.64658322  0.32699077  0.36929852    -0.13400
F953        F  0.67522748  0.27152825  0.37434861    -0.15700
F954        F  0.62731849  0.31800689  0.43818332    -0.14300
F955        F  0.65269533  0.27948075  0.52224942    -0.14300
F956        F  0.58229841  0.27713138  0.49033883    -0.15700
C957        C  0.66419332  0.26691080  0.17985684     0.14400
C958        C  0.67907012  0.26231531  0.15691248     0.01300
C959        C  0.69457683  0.27144727  0.16380423     0.16300
C960        C  0.69555071  0.28423676  0.19523855     0.25700
C961        C  0.68097589  0.28794159  0.22114066    -0.40600
C962        C  0.66498517  0.27993013  0.21061485     0.32800
C963        C  0.67828944  0.24819896  0.12521849     0.01400
F964        F  0.70890489  0.26782964  0.14027248    -0.12900
F965        F  0.65003051  0.28456251  0.23051659    -0.13400
C966        C  0.68113460  0.25178358  0.08237469     0.16300
C967        C  0.68027389  0.23847154  0.05241836     0.25700
C968        C  0.67615804  0.22115964  0.06433166    -0.40600
C969        C  0.67409646  0.21758621  0.10805902     0.32700
C970        C  0.67496458  0.23103397  0.13789748     0.14400
F971        F  0.68451660  0.26829353  0.06940510    -0.12900
F972        F  0.67210267  0.20122229  0.12306902    -0.13400
F973        F  0.68347318  0.24258014  0.01131203    -0.15700
F974        F  0.67300359  0.22720919  0.17960299    -0.14300
F975        F  0.64881849  0.25883414  0.17223661    -0.14300
F976        F  0.71051113  0.29344040  0.19808999    -0.15700
C977        C  0.64476112  0.20736054  0.84772479     0.14400
C978        C  0.62775587  0.21342828  0.85453604     0.01300
C979        C  0.62137810  0.21465296  0.89609490     0.16300
C980        C  0.63215967  0.21074118  0.93037714     0.25700
C981        C  0.64953868  0.20567911  0.92359502    -0.40600
C982        C  0.65560310  0.20362897  0.88194174     0.32800
C983        C  0.61748254  0.22022024  0.81861041     0.01400
F984        F  0.60497270  0.22038608  0.90356906    -0.12900
F985        F  0.67229922  0.19889330  0.87424725    -0.13400
C986        C  0.60095143  0.21356294  0.80900185     0.16300
C987        C  0.59146513  0.22033946  0.77495983     0.25700
C988        C  0.59840578  0.23388999  0.74993980    -0.40600
C989        C  0.61492333  0.24057934  0.76011174     0.32700
C990        C  0.62428258  0.23385196  0.79409722     0.14400
F991        F  0.59413043  0.20030492  0.83208759    -0.12900
F992        F  0.62217803  0.25363472  0.73713912    -0.13400
F993        F  0.57556152  0.21354725  0.76646814    -0.15700
F994        F  0.64000417  0.24086882  0.80351423    -0.14300
F995        F  0.65102582  0.20554697  0.80776603    -0.14300
F996        F  0.62559915  0.21191548  0.97019714    -0.15700
C997        C  0.81231696  0.25146083  0.69213304     0.14400
C998        C  0.81834765  0.24809859  0.65095316     0.01300
C999        C  0.82323576  0.23102468  0.64050485     0.16300
C1000       C  0.82270300  0.21771853  0.67076921     0.25700
C1001       C  0.81806976  0.22129521  0.71341656    -0.40600
C1002       C  0.81215235  0.23830154  0.72281061     0.32800
C1003       C  0.82006956  0.26243196  0.61935075     0.01400
F1004       F  0.82896787  0.22718692  0.60091277    -0.12900
F1005       F  0.80635298  0.24231940  0.76223606    -0.13400
C1006       C  0.82956471  0.27749130  0.62931333     0.16300
C1007       C  0.83195744  0.29077079  0.59945943     0.25700
C1008       C  0.82490604  0.28934686  0.55817391    -0.40600
C1009       C  0.81575359  0.27385941  0.54824333     0.32700
C1010       C  0.81306840  0.26084076  0.57853026     0.14400
F1011       F  0.83719718  0.27911005  0.66783283    -0.12900
F1012       F  0.80935397  0.27122728  0.50869797    -0.13400
F1013       F  0.84195850  0.30435871  0.61141193    -0.15700
F1014       F  0.80346181  0.24668183  0.56786641    -0.14300
F1015       F  0.80655032  0.26757431  0.70279460    -0.14300
F1016       F  0.82605922  0.20142187  0.65678278    -0.15700
C1017       C  0.86335360  0.23003568  0.00733214     0.14400
C1018       C  0.86963846  0.22371217  0.96849168     0.01300
C1019       C  0.88765642  0.22345211  0.96133345     0.16300
C1020       C  0.89922107  0.22920694  0.99248758     0.25700
C1021       C  0.89303779  0.23544157  0.03170618    -0.40600
C1022       C  0.87490089  0.23585853  0.03861057     0.32800
C1023       C  0.85757288  0.21786166  0.93464339     0.01400
F1024       F  0.89407481  0.21798114  0.92354587    -0.12900
F1025       F  0.86824651  0.24200019  0.07551493    -0.13400
C1026       C  0.84544694  0.22947797  0.91711241     0.16300
C1027       C  0.83568857  0.22468667  0.88161983     0.25700
C1028       C  0.83783584  0.20817769  0.86305161    -0.40600
C1029       C  0.84913905  0.19616209  0.88223581     0.32700
C1030       C  0.85896396  0.20099556  0.91761687     0.14400
F1031       F  0.84358798  0.24575175  0.93320825    -0.12900
F1032       F  0.85138430  0.18003790  0.86555440    -0.13400
F1033       F  0.82418706  0.23624325  0.86518607    -0.15700
F1034       F  0.87013346  0.18930384  0.93482051    -0.14300
F1035       F  0.84600627  0.23041324  0.01515714    -0.14300
F1036       F  0.91650010  0.22873262  0.98393450    -0.15700
C1037       C  0.75397541  0.18219603  0.82918324     0.14400
C1038       C  0.75412350  0.18481167  0.87313559     0.01300
C1039       C  0.76996186  0.18816105  0.89352384     0.16300
C1040       C  0.78534678  0.18963483  0.87015890     0.25700
C1041       C  0.78517053  0.18785444  0.82575709    -0.40600
C1042       C  0.76935571  0.18375920  0.80561581     0.32800
C1043       C  0.73762721  0.18678385  0.89679813     0.01400
F1044       F  0.77035456  0.19088594  0.93598338    -0.12900
F1045       F  0.76870195  0.18169289  0.76298088    -0.13400
C1046       C  0.72733969  0.17237113  0.90800853     0.16300
C1047       C  0.71204260  0.17473259  0.93169598     0.25700
C1048       C  0.70694955  0.19152662  0.94449055    -0.40600
C1049       C  0.71706294  0.20590736  0.93200511     0.32700
C1050       C  0.73224542  0.20353294  0.90855429     0.14400
F1051       F  0.73234808  0.15604984  0.89699445    -0.12900
F1052       F  0.71212912  0.22235909  0.94210623    -0.13400
F1053       F  0.70261716  0.16060456  0.94352379    -0.15700
F1054       F  0.74176403  0.21765788  0.89711035    -0.14300
F1055       F  0.73876223  0.17910116  0.80885248    -0.14300
F1056       F  0.80012383  0.19411030  0.89084234    -0.15700
C1057       C  0.00992528  0.43269328  0.87161086     0.14400
C1058       C  0.02103790  0.44686653  0.86350873     0.01300
C1059       C  0.03661981  0.44817835  0.88631637     0.16300
C1060       C  0.04120637  0.43545402  0.91609333     0.25700
C1061       C  0.03028132  0.42106732  0.92392108    -0.40600
C1062       C  0.01443907  0.41996821  0.90182358     0.32800
C1063       C  0.01590027  0.46118075  0.83420386     0.01400
F1064       F  0.04731230  0.46200794  0.88014381    -0.12900
F1065       F  0.00346380  0.40645734  0.90901656    -0.13400
C1066       C  0.00754470  0.47588796  0.85033621     0.16300
C1067       C  0.00386807  0.49019558  0.82439971     0.25700
C1068       C  0.00950133  0.49082327  0.78124615    -0.40600
C1069       C  0.01614015  0.47497173  0.76447333     0.32700
C1070       C  0.01970757  0.46059680  0.79077834     0.14400
F1071       F  0.00272761  0.47635398  0.89169285    -0.12900
F1072       F  0.01995075  0.47358365  0.72267515    -0.13400
F1073       F  0.99384549  0.50279950  0.84191559    -0.15700
F1074       F  0.02720183  0.44619253  0.77389469    -0.14300
F1075       F  0.99463761  0.43129629  0.85053265    -0.14300
F1076       F  0.05611867  0.43752809  0.93842555    -0.15700
C1077       C  0.02225613  0.44901092  0.08772247     0.14400
C1078       C  0.02237145  0.44366368  0.13036028     0.01300
C1079       C  0.02673215  0.42637717  0.14020483     0.16300
C1080       C  0.03112729  0.41470840  0.10794535     0.25700
C1081       C  0.03093453  0.42009026  0.06543625    -0.40600
C1082       C  0.02635100  0.43725439  0.05548267     0.32800
C1083       C  0.01777278  0.45622871  0.16409449     0.01400
F1084       F  0.02645913  0.42074279  0.18092919    -0.12900
F1085       F  0.02649238  0.44280586  0.01469229    -0.13400
C1086       C  0.00180242  0.46486752  0.16261878     0.16300
C1087       C  0.99824905  0.47846758  0.19048457     0.25700
C1088       C  0.01075468  0.48409892  0.22062703    -0.40600
C1089       C  0.02572115  0.47346951  0.22578022     0.32700
C1090       C  0.02943121  0.46016465  0.19681673     0.14400
F1091       F  0.98979531  0.46050873  0.13299639    -0.12900
F1092       F  0.03667793  0.47533983  0.25899257    -0.13400
F1093       F  0.98300265  0.48707469  0.18554539    -0.15700
F1094       F  0.04473590  0.45148325  0.20002758    -0.14300
F1095       F  0.01857022  0.46576769  0.07742355    -0.14300
F1096       F  0.03537619  0.39807228  0.11806751    -0.15700
C1097       C  0.13952152  0.36620315  0.00327455     0.14400
C1098       C  0.12492246  0.35618372  0.01445782     0.01300
C1099       C  0.12755642  0.33953348  0.03210271     0.16300
C1100       C  0.14443871  0.33301332  0.03774591     0.25700
C1101       C  0.15893169  0.34276643  0.02461810    -0.40600
C1102       C  0.15630124  0.35953475  0.00802204     0.32800
C1103       C  0.10712516  0.36338685  0.00799713     0.01400
F1104       F  0.11379882  0.32936725  0.04275855    -0.12900
F1105       F  0.17007056  0.36967003  0.99726466    -0.13400
C1106       C  0.10211676  0.36991381  0.96826398     0.16300
C1107       C  0.08597429  0.37806244  0.96266680     0.25700
C1108       C  0.07428230  0.37995923  0.99701711    -0.40600
C1109       C  0.07901135  0.37218631  0.03607415     0.32700
C1110       C  0.09525595  0.36434385  0.04163271     0.14400
F1111       F  0.11281336  0.36808444  0.93433027    -0.12900
F1112       F  0.06786677  0.37225516  0.06945248    -0.13400
F1113       F  0.08178578  0.38312505  0.92294809    -0.15700
F1114       F  0.09953204  0.35809321  0.08044080    -0.14300
F1115       F  0.13753871  0.38264394  0.98830242    -0.14300
F1116       F  0.14656218  0.31697602  0.05487423    -0.15700
C1117       C  0.98767436  0.36069671  0.05490922     0.14400
C1118       C  0.98719142  0.34426073  0.03508121     0.01300
C1119       C  0.99751642  0.34157177  0.99888580     0.16300
C1120       C  0.00875841  0.35457931  0.98431208     0.25700
C1121       C  0.01021716  0.37054500  0.00585861    -0.40600
C1122       C  0.99909938  0.37372801  0.04046522     0.32800
C1123       C  0.97672510  0.32957161  0.05291477     0.01400
F1124       F  0.99752435  0.32591437  0.97898254    -0.12900
F1125       F  0.00009010  0.38895353  0.06210522    -0.13400
C1126       C  0.96487231  0.32046306  0.02731538     0.16300
C1127       C  0.95621226  0.30569214  0.04265129     0.25700
C1128       C  0.95894827  0.29974003  0.08432636    -0.40600
C1129       C  0.97051197  0.30912064  0.11037759     0.32700
C1130       C  0.97939658  0.32377105  0.09471198     0.14400
F1131       F  0.96161502  0.32591849  0.98723679    -0.12900
F1132       F  0.97367405  0.30383153  0.15063918    -0.13400
F1133       F  0.94493868  0.29733577  0.01664310    -0.15700
F1134       F  0.99114972  0.33188948  0.11992150    -0.14300
F1135       F  0.97738622  0.36397606  0.08892901    -0.14300
F1136       F  0.01887951  0.35126791  0.95000742    -0.15700
C1137       C  0.00902655  0.54186845  0.84061103     0.14400
C1138       C  0.99324039  0.55081173  0.83680222     0.01300
C1139       C  0.98261621  0.54727082  0.80175916     0.16300
C1140       C  0.98703442  0.53417475  0.77270077     0.25700
C1141       C  0.00206862  0.52368719  0.77883178    -0.40600
C1142       C  0.01363623  0.52895977  0.81144365     0.32800
C1143       C  0.98773041  0.56354079  0.86982218     0.01400
F1144       F  0.96793763  0.55670357  0.79532815    -0.12900
F1145       F  0.02893892  0.52053752  0.81732810    -0.13400
C1146       C  0.99841307  0.57770120  0.88091439     0.16300
C1147       C  0.99340872  0.58928966  0.91305653     0.25700
C1148       C  0.97750874  0.58711136  0.93432673    -0.40600
C1149       C  0.96684442  0.57287719  0.92327657     0.32700
C1150       C  0.97192155  0.56123245  0.89146805     0.14400
F1151       F  0.01357123  0.58050394  0.85999639    -0.12900
F1152       F  0.95170826  0.56987072  0.94418394    -0.13400
F1153       F  0.00389292  0.60293924  0.92253994    -0.15700
F1154       F  0.96158232  0.54737888  0.88259749    -0.14300
F1155       F  0.01965012  0.54495512  0.87404075    -0.14300
F1156       F  0.97685275  0.53260789  0.73794347    -0.15700
C1157       C  0.97532364  0.55830872  0.11665990     0.14400
C1158       C  0.99243364  0.55916535  0.13135089     0.01300
C1159       C  0.00348071  0.57239528  0.11690944     0.16300
C1160       C  0.99731319  0.58495193  0.08852539     0.25700
C1161       C  0.98002456  0.58426635  0.07386645    -0.40600
C1162       C  0.96921009  0.57056147  0.08778442     0.32800
C1163       C  0.99867671  0.54567373  0.16056502     0.01400
F1164       F  0.02019773  0.57314042  0.13041598    -0.12900
F1165       F  0.95286866  0.56856804  0.07243708    -0.13400
C1166       C  0.00598284  0.53044290  0.14448712     0.16300
C1167       C  0.00965487  0.51648923  0.17125906     0.25700
C1168       C  0.00499018  0.51702556  0.21503901    -0.40600
C1169       C  0.99954929  0.53340560  0.23119778     0.32700
C1170       C  0.99607484  0.54736236  0.20412858     0.14400
F1171       F  0.00941114  0.52900765  0.10243726    -0.12900
F1172       F  0.99644594  0.53564554  0.27309404    -0.13400
F1173       F  0.01847523  0.50300744  0.15375709    -0.15700
F1174       F  0.98956397  0.56237708  0.22029919    -0.14300
F1175       F  0.96459130  0.54536851  0.12992484    -0.14300
F1176       F  0.00817949  0.59790838  0.07625028    -0.15700
C1177       C  0.95187730  0.49248471  0.40256880     0.14400
C1178       C  0.94867706  0.48770131  0.36037390     0.01300
C1179       C  0.93326828  0.47893034  0.35027750     0.16300
C1180       C  0.92163376  0.47414634  0.38228961     0.25700
C1181       C  0.92533108  0.47794394  0.42503269    -0.40600
C1182       C  0.94030695  0.48765092  0.43469034     0.32800
C1183       C  0.96232362  0.49016132  0.32798849     0.01400
F1184       F  0.92994463  0.47421278  0.30967488    -0.12900
F1185       F  0.94438132  0.49148135  0.47542388    -0.13400
C1186       C  0.97758693  0.48037011  0.33055123     0.16300
C1187       C  0.99119674  0.48327640  0.30226275     0.25700
C1188       C  0.99022337  0.49663769  0.27125507    -0.40600
C1189       C  0.97374180  0.50472996  0.26550942     0.32700
C1190       C  0.96019189  0.50184785  0.29439463     0.14400
F1191       F  0.97946020  0.46815882  0.36128285    -0.12900
F1192       F  0.97017822  0.51486439  0.23150046    -0.13400
F1193       F  0.00596058  0.47387843  0.30746737    -0.15700
F1194       F  0.94502582  0.51066815  0.28985533    -0.14300
F1195       F  0.96659416  0.50127338  0.41278387    -0.14300
F1196       F  0.90688930  0.46553459  0.37150280    -0.15700
C1197       C  0.95323282  0.46961187  0.61227507     0.14400
C1198       C  0.95163448  0.48572529  0.63279457     0.01300
C1199       C  0.93799872  0.49694240  0.62127291     0.16300
C1200       C  0.92620606  0.49212287  0.58938949     0.25700
C1201       C  0.92774932  0.47589852  0.56904392    -0.40600
C1202       C  0.94154547  0.46479435  0.58062113     0.32800
C1203       C  0.96528244  0.49129790  0.66305928     0.01400
F1204       F  0.93635785  0.51270301  0.64025591    -0.12900
F1205       F  0.94409695  0.44941667  0.56035726    -0.13400
C1206       C  0.98227343  0.49355334  0.64846425     0.16300
C1207       C  0.99566243  0.49798027  0.67616436     0.25700
C1208       C  0.99234796  0.50143551  0.71985856    -0.40600
C1209       C  0.97524799  0.49775382  0.73454934     0.32700
C1210       C  0.96188210  0.49314633  0.70641776     0.14400
F1211       F  0.98604716  0.49106743  0.60687671    -0.12900
F1212       F  0.97125250  0.49911238  0.77623933    -0.13400
F1213       F  0.01192081  0.49755523  0.65964035    -0.15700
F1214       F  0.94566398  0.49014493  0.72171085    -0.14300
F1215       F  0.96632820  0.45857039  0.62266614    -0.14300
F1216       F  0.91315655  0.50318030  0.57894221    -0.15700
C1217       C  0.87190685  0.36533012  0.51831691     0.14400
C1218       C  0.86403139  0.38068358  0.50394267     0.01300
C1219       C  0.84694092  0.38012993  0.48853203     0.16300
C1220       C  0.83791154  0.36432749  0.48681473     0.25700
C1221       C  0.84571967  0.34893670  0.50141759    -0.40600
C1222       C  0.86278009  0.34959181  0.51738724     0.32800
C1223       C  0.87365799  0.39730067  0.50448549     0.01400
F1224       F  0.83911433  0.39489850  0.47466080    -0.12900
F1225       F  0.87078149  0.33488644  0.53104640    -0.13400
C1226       C  0.88729360  0.40020103  0.47595567     0.16300
C1227       C  0.89583700  0.41627087  0.47482904     0.25700
C1228       C  0.89030498  0.43015646  0.50117063    -0.40600
C1229       C  0.87756370  0.42645306  0.53229208     0.32700
C1230       C  0.86920223  0.41032192  0.53346856     0.14400
F1231       F  0.89225584  0.38744852  0.44874976    -0.12900
F1232       F  0.87297440  0.43861780  0.56143166    -0.13400
F1233       F  0.91001599  0.41750068  0.44962422    -0.15700
F1234       F  0.85667765  0.40739886  0.56292949    -0.14300
F1235       F  0.88840941  0.36563042  0.53341448    -0.14300
F1236       F  0.82145964  0.36413626  0.47157714    -0.15700
C1237       C  0.07434391  0.53705334  0.35320515     0.14400
C1238       C  0.06412613  0.52221446  0.36002224     0.01300
C1239       C  0.06638417  0.51275953  0.39760890     0.16300
C1240       C  0.07749576  0.51875581  0.42941483     0.24100
C1241       C  0.08718387  0.53426358  0.42406882    -0.40600
C1242       C  0.08603564  0.54275946  0.38421650     0.32800
C1243       C  0.04989796  0.51743573  0.33040649     0.01400
F1244       F  0.05731650  0.49782770  0.40414011    -0.12900
F1245       F  0.09630624  0.55653572  0.37443502    -0.13400
C1246       C  0.05282256  0.51465582  0.28707070     0.16300
C1247       C  0.03905982  0.50999354  0.26024096     0.25700
C1248       C  0.02205008  0.50702044  0.27633304    -0.40600
C1249       C  0.01919717  0.51156726  0.31958760     0.32700
C1250       C  0.03290948  0.51627397  0.34591808     0.14400
F1251       F  0.06908186  0.51607945  0.27074011    -0.12900
F1252       F  0.00310450  0.51295584  0.33676764    -0.13400
F1253       F  0.04257243  0.50777360  0.21849024    -0.15700
F1254       F  0.02938544  0.52042315  0.38684680    -0.14300
F1255       F  0.07253774  0.54649697  0.31714496    -0.14300
F1256       F  0.07797263  0.50946143  0.46576382    -0.15700
C1257       C  0.08203155  0.52865329  0.64524858     0.14400
C1258       C  0.06437873  0.52554281  0.63593126     0.01300
C1259       C  0.05911155  0.52606055  0.59315709     0.16300
C1260       C  0.07091682  0.53030653  0.56096662     0.25700
C1261       C  0.08837877  0.53373922  0.57040499    -0.40600
C1262       C  0.09388910  0.53268635  0.61277221     0.32800
C1263       C  0.05119320  0.52243275  0.67019018     0.01400
F1264       F  0.04235102  0.52278344  0.58244928    -0.12900
F1265       F  0.11068879  0.53611414  0.62279985    -0.13400
C1266       C  0.03563017  0.53195546  0.67063005     0.16300
C1267       C  0.02206915  0.52747056  0.69807530     0.25700
C1268       C  0.02358964  0.51338357  0.72711370    -0.40600
C1269       C  0.04038984  0.50588012  0.73111291     0.32700
C1270       C  0.05365125  0.50977702  0.70184310     0.14400
F1271       F  0.03329453  0.54545563  0.64346532    -0.12900
F1272       F  0.04445439  0.49508112  0.76349484    -0.13400
F1273       F  0.00685288  0.53617514  0.69371088    -0.15700
F1274       F  0.06874074  0.50068945  0.70382931    -0.14300
F1275       F  0.08767552  0.52868258  0.68592161    -0.14300
F1276       F  0.06497043  0.53221415  0.52085478    -0.15700
C1277       C  0.16762508  0.50851285  0.50269103     0.14400
C1278       C  0.16562104  0.49612847  0.47034914     0.01300
C1279       C  0.14983913  0.49541715  0.44807890     0.16300
C1280       C  0.13654598  0.50738427  0.45682433     0.25700
C1281       C  0.13883922  0.52026832  0.48798748    -0.40600
C1282       C  0.15439769  0.52049350  0.51137694     0.32800
C1283       C  0.18055345  0.48508438  0.45747846     0.01400
F1284       F  0.14767399  0.48374130  0.41627557    -0.12900
F1285       F  0.15687707  0.53245569  0.54242224    -0.13400
C1286       C  0.17998968  0.46688201  0.46150790     0.16300
C1287       C  0.19426816  0.45668753  0.44914382     0.25700
C1288       C  0.20929029  0.46454221  0.43189245    -0.40600
C1289       C  0.20967474  0.48279819  0.42775960     0.32700
C1290       C  0.19551953  0.49291564  0.44060060     0.14400
F1291       F  0.16568440  0.45900906  0.47787668    -0.12900
F1292       F  0.22384648  0.49097953  0.41163321    -0.13400
F1293       F  0.19325530  0.43913982  0.45357654    -0.15700
F1294       F  0.19631852  0.51046383  0.43593471    -0.14300
F1295       F  0.18257646  0.50917575  0.52538619    -0.14300
F1296       F  0.12191530  0.50706736  0.43291519    -0.15700
C1297       C  0.40341130  0.12653047  0.47238638     0.14400
C1298       C  0.39802803  0.13485637  0.50977497     0.01300
C1299       C  0.40952031  0.13535198  0.54414789     0.16300
C1300       C  0.42597378  0.12768855  0.54132404     0.25700
C1301       C  0.43174465  0.11946920  0.50363957    -0.40600
C1302       C  0.42002900  0.11910283  0.46900834     0.32800
C1303       C  0.38070714  0.14353971  0.51262101     0.01400
F1304       F  0.40502366  0.14377374  0.58032656    -0.12900
F1305       F  0.42422749  0.11187152  0.43137384    -0.13400
C1306       C  0.36900220  0.13941148  0.54546477     0.16300
C1307       C  0.35307095  0.14819845  0.54916072     0.25700
C1308       C  0.34848874  0.16124731  0.51996368    -0.40600
C1309       C  0.35998976  0.16501689  0.48651222     0.32700
C1310       C  0.37593483  0.15634872  0.48300938     0.14400
F1311       F  0.37281955  0.12652839  0.57336238    -0.12900
F1312       F  0.35587212  0.17732297  0.45737271    -0.13400
F1313       F  0.34182308  0.14338670  0.58015921    -0.15700
F1314       F  0.38689266  0.16076293  0.45105313    -0.14300
F1315       F  0.39245688  0.12546213  0.43883988    -0.14300
F1316       F  0.43653954  0.12868434  0.57564804    -0.15700
C1317       C  0.54200647  0.17877478  0.56530488     0.14400
C1318       C  0.52413187  0.17711141  0.57353891     0.01300
C1319       C  0.51548635  0.19079160  0.59445887     0.16300
C1320       C  0.52451929  0.20576787  0.60691629     0.25700
C1321       C  0.54239519  0.20756529  0.59809504    -0.40600
C1322       C  0.55101919  0.19382695  0.57722597     0.32800
C1323       C  0.51444869  0.16127150  0.55987007     0.01400
F1324       F  0.49814061  0.18985487  0.60202727    -0.12900
F1325       F  0.56827748  0.19480156  0.56863763    -0.13400
C1326       C  0.50423315  0.15189671  0.58898689     0.16300
C1327       C  0.49386556  0.13801786  0.57537777     0.25700
C1328       C  0.49392010  0.13284650  0.53269917    -0.40600
C1329       C  0.50465177  0.14166200  0.50387520     0.32700
C1330       C  0.51474136  0.15584753  0.51723640     0.14400
F1331       F  0.50396340  0.15645134  0.63051437    -0.12900
F1332       F  0.50449603  0.13723729  0.46228713    -0.13400
F1333       F  0.48305146  0.13018479  0.60351642    -0.15700
F1334       F  0.52398633  0.16493123  0.48802236    -0.14300
F1335       F  0.55086248  0.16565324  0.54626150    -0.14300
F1336       F  0.51565292  0.21854238  0.62733390    -0.15700
C1337       C  0.47759023  0.03238956  0.68840077     0.14400
C1338       C  0.48995569  0.03856459  0.65963906     0.01300
C1339       C  0.50675417  0.03158928  0.66043823     0.16300
C1340       C  0.51125882  0.01892013  0.69033597     0.25700
C1341       C  0.49922113  0.01318861  0.72158013    -0.40600
C1342       C  0.48189430  0.01966153  0.71817026     0.32800
C1343       C  0.48515162  0.05218838  0.62858687     0.01400
F1344       F  0.51880329  0.03692439  0.63181015    -0.12900
F1345       F  0.46849791  0.01311274  0.74104551    -0.13400
C1346       C  0.49311620  0.06862380  0.63007232     0.16300
C1347       C  0.48822799  0.08169462  0.60162310     0.25700
C1348       C  0.47502363  0.07867299  0.57188057    -0.40600
C1349       C  0.46704409  0.06221452  0.57036797     0.32700
C1350       C  0.47217839  0.04902748  0.59826224     0.14400
F1351       F  0.50533558  0.07212943  0.65981885    -0.12900
F1352       F  0.45466482  0.05875619  0.54097097    -0.13400
F1353       F  0.49611638  0.09743985  0.60386049    -0.15700
F1354       F  0.46466236  0.03308172  0.59536335    -0.14300
F1355       F  0.46110109  0.03866992  0.68752953    -0.14300
F1356       F  0.52768774  0.01252474  0.68938276    -0.15700
C1357       C  0.57568527  0.01148375  0.87961358     0.14400
C1358       C  0.55946999  0.01981123  0.87562999     0.01300
C1359       C  0.55533513  0.03345515  0.90358172     0.16300
C1360       C  0.56726006  0.03891168  0.93419281     0.25700
C1361       C  0.58350482  0.03069891  0.93800714    -0.40600
C1362       C  0.58755251  0.01679401  0.91078807     0.32800
C1363       C  0.54678603  0.01436050  0.84258300     0.01400
F1364       F  0.53956880  0.04133593  0.90172655    -0.12900
F1365       F  0.60321933  0.00875853  0.91339037    -0.13400
C1366       C  0.54041429  0.99728940  0.84138059     0.16300
C1367       C  0.52757943  0.99250604  0.81221955     0.25700
C1368       C  0.52078179  0.00456937  0.78231213    -0.40600
C1369       C  0.52732132  0.02191885  0.78450629     0.32700
C1370       C  0.54021911  0.02652493  0.81366542     0.14400
F1371       F  0.54609197  0.98533052  0.86980930    -0.12900
F1372       F  0.52045580  0.03513856  0.76163987    -0.13400
F1373       F  0.52162363  0.97588375  0.81349406    -0.15700
F1374       F  0.54597341  0.04323512  0.81442403    -0.14300
F1375       F  0.58020000  0.99851549  0.85257056    -0.14300
F1376       F  0.56276356  0.05202499  0.96085228    -0.15700
C1377       C  0.65646123  0.13176130  0.03615550     0.14400
C1378       C  0.64235849  0.12827135  0.00923041     0.01300
C1379       C  0.63670429  0.14112779  0.98093495     0.16300
C1380       C  0.64505964  0.15723901  0.97935073     0.25700
C1381       C  0.65918995  0.16078433  0.00619110    -0.40600
C1382       C  0.66480656  0.14794684  0.03471132     0.32800
C1383       C  0.63384818  0.11104275  0.00967607     0.01400
F1384       F  0.62290689  0.13812573  0.95521892    -0.12900
F1385       F  0.67862900  0.15094740  0.06033531    -0.13400
C1386       C  0.62474586  0.10535365  0.04546247     0.16300
C1387       C  0.61733420  0.08871968  0.04666010     0.25700
C1388       C  0.61889279  0.07726308  0.01152006    -0.40600
C1389       C  0.62762501  0.08357520  0.97508477     0.32700
C1390       C  0.63498545  0.10017375  0.97428339     0.14400
F1391       F  0.62302670  0.11599417  0.07954451    -0.12900
F1392       F  0.62959832  0.07334931  0.94033589    -0.13400
F1393       F  0.60910710  0.08426670  0.08287568    -0.15700
F1394       F  0.64375101  0.10545949  0.93922936    -0.14300
F1395       F  0.66237510  0.11933764  0.06307553    -0.14300
F1396       F  0.63897450  0.16952467  0.95236603    -0.15700
C1397       C  0.51164636  0.03773903  0.33900061     0.14400
C1398       C  0.49638284  0.04769153  0.33773710     0.01300
C1399       C  0.48442599  0.04437208  0.30509805     0.16300
C1400       C  0.48716242  0.03083196  0.27595467     0.25700
C1401       C  0.50125294  0.01904028  0.28077126    -0.40600
C1402       C  0.51412468  0.02379988  0.31100100     0.32800
C1403       C  0.49268356  0.06111657  0.37098533     0.01400
F1404       F  0.46968066  0.05396701  0.30194697    -0.12900
F1405       F  0.52879410  0.01423125  0.31554282    -0.13400
C1406       C  0.48771375  0.07816151  0.35988329     0.16300
C1407       C  0.48241252  0.09008846  0.39101863     0.25700
C1408       C  0.48243919  0.08545002  0.43412550    -0.40600
C1409       C  0.48838792  0.06876569  0.44544207     0.32700
C1410       C  0.49324943  0.05668547  0.41427376     0.14400
F1411       F  0.48789475  0.08326302  0.31875204    -0.12900
F1412       F  0.48846137  0.06367880  0.48653775    -0.13400
F1413       F  0.47707710  0.10617916  0.37898639    -0.15700
F1414       F  0.49762330  0.04031193  0.42642489    -0.14300
F1415       F  0.52415742  0.04131658  0.36798793    -0.14300
F1416       F  0.47614635  0.02992758  0.24263497    -0.15700
C1417       C  0.57763251  0.02382399  0.15203021     0.14400
C1418       C  0.56243469  0.01520345  0.13940372     0.01300
C1419       C  0.56053272  0.01033552  0.09675641     0.16300
C1420       C  0.57309850  0.01504302  0.06664303     0.25700
C1421       C  0.58780981  0.02472652  0.07877016    -0.40600
C1422       C  0.59026760  0.02839444  0.12213807     0.32800
C1423       C  0.54814478  0.01220655  0.17017155     0.01400
F1424       F  0.54620029  0.00146112  0.08409601    -0.12900
F1425       F  0.60467982  0.03697932  0.13547160    -0.13400
C1426       C  0.53235879  0.02106026  0.16570826     0.16300
C1427       C  0.51871167  0.01818576  0.19416275     0.25700
C1428       C  0.52007284  0.00565052  0.22709572    -0.40600
C1429       C  0.53677898  0.99809200  0.23349155     0.32700
C1430       C  0.55041848  0.00115071  0.20495188     0.14400
F1431       F  0.53016634  0.03264355  0.13369056    -0.12900
F1432       F  0.54055317  0.98840534  0.26812160    -0.13400
F1433       F  0.50370721  0.02708429  0.18798217    -0.15700
F1434       F  0.56596044  0.99322480  0.21131524    -0.14300
F1435       F  0.57981551  0.02864352  0.19302631    -0.14300
F1436       F  0.57020731  0.01113316  0.02537401    -0.15700
C1437       C  0.47501244  0.98675772  0.15864305     0.14400
C1438       C  0.45805950  0.98898425  0.17408413     0.01300
C1439       C  0.45599177  0.99300599  0.21725766     0.16300
C1440       C  0.47055696  0.99578842  0.24333325     0.25700
C1441       C  0.48764257  0.99650433  0.22623810    -0.40600
C1442       C  0.48948665  0.99049917  0.18373735     0.32800
C1443       C  0.44294428  0.98699276  0.14446462     0.01400
F1444       F  0.43988001  0.99488790  0.23414291    -0.12900
F1445       F  0.50522099  0.98732314  0.16598220    -0.13400
C1446       C  0.42872061  0.97616905  0.15404929     0.16300
C1447       C  0.41571636  0.97303544  0.12380905     0.25700
C1448       C  0.41713755  0.97968810  0.08210247    -0.40600
C1449       C  0.43086152  0.99135802  0.07359037     0.32700
C1450       C  0.44327812  0.99523343  0.10461200     0.14400
F1451       F  0.42781532  0.96778593  0.19180866    -0.12900
F1452       F  0.43312623  0.99833266  0.03457432    -0.13400
F1453       F  0.40191376  0.96308194  0.13530521    -0.15700
F1454       F  0.45611971  0.00669983  0.09500518    -0.14300
F1455       F  0.47766419  0.98058270  0.11885965    -0.14300
F1456       F  0.46774626  0.99892906  0.28503075    -0.15700
C1457       C  0.47197089  0.00622112  0.84530240     0.14400
C1458       C  0.46434281  0.98985479  0.85039384     0.01300
C1459       C  0.47003505  0.97599031  0.82520276     0.16300
C1460       C  0.48326410  0.97829202  0.79539795     0.25700
C1461       C  0.49049991  0.99505426  0.78770638    -0.40600
C1462       C  0.48491546  0.00879243  0.81484259     0.32800
C1463       C  0.45129848  0.98670843  0.88395065     0.01400
F1464       F  0.46291690  0.95993578  0.83010351    -0.12900
F1465       F  0.49168544  0.02502370  0.81111065    -0.13400
C1466       C  0.43476833  0.99448033  0.88228603     0.16300
C1467       C  0.42200192  0.98992975  0.91201538     0.25700
C1468       C  0.42562868  0.97747997  0.94332739    -0.40600
C1469       C  0.44234366  0.97026740  0.94589738     0.32700
C1470       C  0.45510726  0.97494014  0.91663606     0.14400
F1471       F  0.43076300  0.00578529  0.85074775    -0.12900
F1472       F  0.44620881  0.95847409  0.97646876    -0.13400
F1473       F  0.40585996  0.99690604  0.90880324    -0.15700
F1474       F  0.47115887  0.96772266  0.91962462    -0.14300
F1475       F  0.46711122  0.01970379  0.87045135    -0.14300
F1476       F  0.48941444  0.96367515  0.77667782    -0.15700
C1477       C  0.35066173  0.01644019  0.99371180     0.14400
C1478       C  0.34348063  0.01481126  0.95299237     0.01300
C1479       C  0.35055385  0.00262908  0.92471073     0.16300
C1480       C  0.36402137  0.99162155  0.93763880     0.25700
C1481       C  0.37062737  0.99263051  0.97909962    -0.40600
C1482       C  0.36416974  0.00539567  0.00669042     0.32800
C1483       C  0.32776327  0.02478663  0.94103695     0.01400
F1484       F  0.34408504  0.00112884  0.88490947    -0.12900
F1485       F  0.37023274  0.00645096  0.04691777    -0.13400
C1486       C  0.32881975  0.04252009  0.93080498     0.16300
C1487       C  0.31383719  0.05180789  0.91956048     0.25700
C1488       C  0.29749910  0.04346335  0.91826719    -0.40600
C1489       C  0.29658065  0.02561299  0.92824387     0.32700
C1490       C  0.31155984  0.01641111  0.93960721     0.14400
F1491       F  0.34442188  0.05075942  0.93105263    -0.12900
F1492       F  0.28114234  0.01706764  0.92770075    -0.13400
F1493       F  0.31541785  0.06887522  0.90910010    -0.15700
F1494       F  0.31023462  0.99929148  0.94975801    -0.14300
F1495       F  0.34400115  0.02814507  0.02150727    -0.14300
F1496       F  0.37034590  0.97964326  0.91001644    -0.15700
C1497       C  0.51692516  0.94536834  0.59132418     0.14400
C1498       C  0.51907058  0.94147973  0.63448493     0.01300
C1499       C  0.52593989  0.92521069  0.64609711     0.16300
C1500       C  0.53125355  0.91333896  0.61499483     0.25700
C1501       C  0.52967964  0.91751865  0.57181939    -0.40600
C1502       C  0.52208433  0.93345197  0.56026876     0.32800
C1503       C  0.51535942  0.95495240  0.66693742     0.01400
F1504       F  0.52768131  0.92093470  0.68757212    -0.12900
F1505       F  0.52059259  0.93795522  0.51889662    -0.13400
C1506       C  0.49875577  0.96218764  0.67079132     0.16300
C1507       C  0.49566793  0.97589529  0.69896110     0.25700
C1508       C  0.50911023  0.98283089  0.72492516    -0.40600
C1509       C  0.52605376  0.97573505  0.71901275     0.32700
C1510       C  0.52889084  0.96172975  0.69149551     0.14400
F1511       F  0.48543777  0.95598178  0.64702777    -0.12900
F1512       F  0.54039550  0.98294490  0.73657178    -0.13400
F1513       F  0.47926329  0.98228633  0.70119510    -0.15700
F1514       F  0.54527168  0.95543478  0.68687463    -0.14300
F1515       F  0.51068154  0.96112209  0.57921238    -0.14300
F1516       F  0.53797088  0.89776540  0.62698466    -0.15700
C1517       C  0.53491572  0.94669429  0.39136918     0.14400
C1518       C  0.51943434  0.94361374  0.36924984     0.01300
C1519       C  0.50989265  0.92840752  0.37758815     0.16300
C1520       C  0.51569421  0.91651922  0.40820515     0.25700
C1521       C  0.53123121  0.91959282  0.43036043    -0.40600
C1522       C  0.54077259  0.93483098  0.42166078     0.32800
C1523       C  0.51294638  0.95699731  0.33959419     0.01400
F1524       F  0.49489643  0.92520708  0.35643725    -0.12900
F1525       F  0.55551677  0.93853162  0.44342468    -0.13400
C1526       C  0.51542340  0.95538795  0.29591584     0.16300
C1527       C  0.51147622  0.96929227  0.26883104     0.25700
C1528       C  0.50581639  0.98563034  0.28505362    -0.40600
C1529       C  0.50131543  0.98603904  0.32885452     0.32700
C1530       C  0.50528657  0.97210605  0.35557465     0.14400
F1531       F  0.52241657  0.94060994  0.27962239    -0.12900
F1532       F  0.49255103  0.99952116  0.34649700    -0.13400
F1533       F  0.51458592  0.96708340  0.22696714    -0.15700
F1534       F  0.50174032  0.97341657  0.39757638    -0.14300
F1535       F  0.54429703  0.96134016  0.38374952    -0.14300
F1536       F  0.50632924  0.90186094  0.41564339    -0.15700
C1537       C  0.49195224  0.69178413  0.71379423     0.14400
C1538       C  0.48732811  0.67473048  0.70218381     0.01300
C1539       C  0.47296714  0.67227834  0.67542752     0.16300
C1540       C  0.46340238  0.68654206  0.66052265     0.25700
C1541       C  0.46793393  0.70368816  0.67221200    -0.40600
C1542       C  0.48237456  0.70609023  0.69905971     0.32800
C1543       C  0.49787585  0.65954021  0.71634840     0.01400
F1544       F  0.46810706  0.65596278  0.66392658    -0.12900
F1545       F  0.48746862  0.72232029  0.71063341    -0.13400
C1546       C  0.50036709  0.65599491  0.75968112     0.16300
C1547       C  0.51095443  0.64207258  0.77251645     0.25700
C1548       C  0.51910612  0.63142252  0.74229354    -0.40600
C1549       C  0.51652658  0.63489900  0.69910323     0.32700
C1550       C  0.50595473  0.64873583  0.68624926     0.14400
F1551       F  0.49279191  0.66619985  0.78953043    -0.12900
F1552       F  0.52531884  0.62569269  0.66931621    -0.13400
F1553       F  0.51390661  0.63945585  0.81439061    -0.15700
F1554       F  0.50443356  0.65222515  0.64429195    -0.14300
F1555       F  0.50609472  0.69464884  0.73845896    -0.14300
F1556       F  0.44968753  0.68346961  0.63461573    -0.15700
C1557       C  0.49363957  0.85411460  0.55248828     0.14400
C1558       C  0.49243615  0.83937585  0.52612669     0.01300
C1559       C  0.50159735  0.83934029  0.48748397     0.16300
C1560       C  0.51261010  0.85320692  0.47688992     0.25700
C1561       C  0.51446060  0.86746499  0.50438284    -0.40600
C1562       C  0.50442672  0.86808634  0.54150219     0.32800
C1563       C  0.48262098  0.82368595  0.54038609     0.01400
F1564       F  0.50020947  0.82567249  0.46046278    -0.12900
F1565       F  0.50611024  0.88158265  0.56889943    -0.13400
C1566       C  0.46525590  0.82502245  0.55389311     0.16300
C1567       C  0.45645677  0.81047438  0.57001633     0.25700
C1568       C  0.46474063  0.79411080  0.57239755    -0.40600
C1569       C  0.48207805  0.79277802  0.55830621     0.32700
C1570       C  0.49090679  0.80738481  0.54269002     0.14400
F1571       F  0.45674608  0.84046328  0.55134745    -0.12900
F1572       F  0.49066103  0.77736334  0.56001869    -0.13400
F1573       F  0.43988349  0.81255714  0.58386852    -0.15700
F1574       F  0.50781253  0.80567946  0.53107950    -0.14300
F1575       F  0.48530205  0.85449832  0.59036961    -0.14300
F1576       F  0.52188434  0.85251267  0.44033021    -0.15700
C1577       C  0.01221342  0.66334000  0.00826106     0.14400
C1578       C  0.01474718  0.66619139  0.05191671     0.01300
C1579       C  0.00813644  0.65394820  0.08085563     0.16300
C1580       C  0.99862545  0.63957065  0.06664898     0.25700
C1581       C  0.99567208  0.63700334  0.02320736    -0.40600
C1582       C  0.00270092  0.64888143  0.99407842     0.32800
C1583       C  0.02402593  0.68199374  0.06740119     0.01400
F1584       F  0.01052605  0.65614329  0.12308308    -0.12900
F1585       F  0.99947474  0.64700906  0.95208803    -0.13400
C1586       C  0.01607817  0.69345936  0.09634948     0.16300
C1587       C  0.02497380  0.70817290  0.11132000     0.25700
C1588       C  0.04200157  0.71185224  0.09738625    -0.40600
C1589       C  0.04994712  0.70020422  0.06870467     0.32700
C1590       C  0.04103670  0.68553827  0.05383866     0.14400
F1591       F  0.99953476  0.69058554  0.10961734    -0.12900
F1592       F  0.06648684  0.70282806  0.05517481    -0.13400
F1593       F  0.01684175  0.71880634  0.13937175    -0.15700
F1594       F  0.04921499  0.67454528  0.02671038    -0.14300
F1595       F  0.01810980  0.67507062  0.97948746    -0.14300
F1596       F  0.99119263  0.62882173  0.09557371    -0.15700
C1597       C  0.37790719  0.90189040  0.02800060     0.14400
C1598       C  0.36999625  0.89738290  0.98960033     0.01300
C1599       C  0.37100235  0.90902954  0.95552838     0.16300
C1600       C  0.37920671  0.92516140  0.96035174     0.25700
C1601       C  0.38636994  0.93033812  0.99974208    -0.40600
C1602       C  0.38591282  0.91806945  0.03330151     0.32800
C1603       C  0.36082353  0.88045635  0.98564579     0.01400
F1604       F  0.36348641  0.90507658  0.91787763    -0.12900
F1605       F  0.39275879  0.92126361  0.07185874    -0.13400
C1606       C  0.34787036  0.87580661  0.01506065     0.16300
C1607       C  0.34060818  0.85912416  0.01456831     0.25700
C1608       C  0.34586499  0.84691010  0.98403372    -0.40600
C1609       C  0.35814683  0.85185153  0.95324371     0.32700
C1610       C  0.36564932  0.86843454  0.95422891     0.14400
F1611       F  0.34232525  0.88743283  0.04449899    -0.12900
F1612       F  0.36362751  0.84033580  0.92351774    -0.13400
F1613       F  0.32836627  0.85493076  0.04383039    -0.15700
F1614       F  0.37824346  0.87243526  0.92570802    -0.14300
F1615       F  0.37788341  0.89049524  0.06087550    -0.14300
F1616       F  0.37959970  0.93607418  0.92652363    -0.15700
C1617       C  0.36093528  0.79537901  0.83065474     0.14400
C1618       C  0.37794489  0.78954359  0.83834827     0.01300
C1619       C  0.38432556  0.78951307  0.87990410     0.16300
C1620       C  0.37359383  0.79450765  0.91352345     0.25700
C1621       C  0.35622502  0.79948171  0.90615112    -0.40600
C1622       C  0.35014283  0.80032922  0.86428658     0.32800
C1623       C  0.38854349  0.78237817  0.80333838     0.01400
F1624       F  0.40075248  0.78404092  0.88807319    -0.12900
F1625       F  0.33352315  0.80513323  0.85602323    -0.13400
C1626       C  0.40362306  0.79091150  0.78939510     0.16300
C1627       C  0.41326053  0.78418836  0.75545164     0.25700
C1628       C  0.40800301  0.76872493  0.73500911    -0.40600
C1629       C  0.39302856  0.76007145  0.74977296     0.32700
C1630       C  0.38347423  0.76680770  0.78371353     0.14400
F1631       F  0.40883483  0.80591703  0.80819850    -0.12900
F1632       F  0.38772041  0.74492823  0.73183361    -0.13400
F1633       F  0.42749669  0.79305926  0.74203233    -0.15700
F1634       F  0.36936162  0.75796368  0.79801916    -0.14300
F1635       F  0.35470617  0.79595911  0.79050555    -0.14300
F1636       F  0.38020048  0.79447174  0.95335541    -0.15700
C1637       C  0.10856648  0.78433462  0.96140240     0.14400
C1638       C  0.12656940  0.78566034  0.96776076     0.01300
C1639       C  0.13347530  0.78177766  0.00771690     0.16300
C1640       C  0.12258716  0.77663669  0.04092857     0.25700
C1641       C  0.10448188  0.77524109  0.03482276    -0.40600
C1642       C  0.09760895  0.77913668  0.99454392     0.32800
C1643       C  0.13826644  0.79059713  0.93247803     0.01400
F1644       F  0.15083049  0.78311178  0.01463988    -0.12900
F1645       F  0.08033004  0.77760346  0.98684356    -0.13400
C1646       C  0.13739620  0.80727445  0.91437550     0.16300
C1647       C  0.14851854  0.81184964  0.88104185     0.25700
C1648       C  0.16048384  0.79969233  0.86482433    -0.40600
C1649       C  0.16135127  0.78302898  0.88314255     0.32700
C1650       C  0.15042351  0.77857382  0.91684506     0.14400
F1651       F  0.12577487  0.81912505  0.92905612    -0.12900
F1652       F  0.17286149  0.77106483  0.86850336    -0.13400
F1653       F  0.14708069  0.82792631  0.86361764    -0.15700
F1654       F  0.15144359  0.76235894  0.93372923    -0.14300
F1655       F  0.10165327  0.78764964  0.92271939    -0.14300
F1656       F  0.12984620  0.77311595  0.07911361    -0.15700
C1657       C  0.23319477  0.81729739  0.89518647     0.14400
C1658       C  0.24834027  0.82181298  0.87262826     0.01300
C1659       C  0.24689619  0.82652808  0.82982662     0.16300
C1660       C  0.23078609  0.82573221  0.80932563     0.25700
C1661       C  0.21582688  0.82013639  0.83119543    -0.40600
C1662       C  0.21707782  0.81647396  0.87467254     0.32800
C1663       C  0.26572071  0.81965948  0.89246712     0.01400
F1664       F  0.26127147  0.83079527  0.80713864    -0.12900
F1665       F  0.20298555  0.81082810  0.89662023    -0.13400
C1666       C  0.27070596  0.80318163  0.90730013     0.16300
C1667       C  0.28682754  0.80075828  0.92649400     0.25700
C1668       C  0.29829595  0.81484662  0.93222771    -0.40600
C1669       C  0.29364285  0.83126244  0.91600327     0.32700
C1670       C  0.27749852  0.83362109  0.89600715     0.14400
F1671       F  0.25998333  0.78927795  0.90266413    -0.12900
F1672       F  0.30434344  0.84515467  0.92100374    -0.13400
F1673       F  0.29131123  0.78447000  0.93908353    -0.15700
F1674       F  0.27315821  0.84962562  0.88123329    -0.14300
F1675       F  0.23417006  0.81293894  0.93677195    -0.14300
F1676       F  0.22989640  0.82985824  0.76760249    -0.15700
C1677       C  0.32310899  0.75724215  0.07174479     0.14400
C1678       C  0.32968461  0.76012101  0.11234260     0.01300
C1679       C  0.33718696  0.77629657  0.12194004     0.16300
C1680       C  0.33820520  0.78946257  0.09123458     0.25700
C1681       C  0.33162665  0.78666863  0.04989822    -0.40600
C1682       C  0.32428331  0.77014674  0.04086794     0.32800
C1683       C  0.32918315  0.74596026  0.14410590     0.01400
F1684       F  0.34405438  0.77916459  0.16089084    -0.12900
F1685       F  0.31830023  0.76634291  0.00150773    -0.13400
C1686       C  0.33821333  0.73038223  0.13686970     0.16300
C1687       C  0.33794763  0.71694120  0.16681756     0.25700
C1688       C  0.32819884  0.71864061  0.20464957    -0.40600
C1689       C  0.31959097  0.73470410  0.21192132     0.32700
C1690       C  0.31990907  0.74802363  0.18186333     0.14400
F1691       F  0.34794302  0.72846190  0.10128200    -0.12900
F1692       F  0.31123103  0.73781238  0.24905776    -0.13400
F1693       F  0.34831777  0.70305983  0.15937723    -0.15700
F1694       F  0.31113564  0.76301403  0.18972507    -0.14300
F1695       F  0.31544402  0.74183971  0.06195650    -0.14300
F1696       F  0.34628937  0.80439867  0.10236516    -0.15700
C1697       C  0.34049318  0.62734207  0.28537093     0.14400
C1698       C  0.35718957  0.62434250  0.26862616     0.01300
C1699       C  0.36663818  0.63848578  0.25222707     0.16300
C1700       C  0.35950563  0.65524022  0.25204995     0.25700
C1701       C  0.34275980  0.65824968  0.26838076    -0.40600
C1702       C  0.33338450  0.64418115  0.28549223     0.32800
C1703       C  0.36486075  0.60655161  0.26767066     0.01400
F1704       F  0.38296615  0.63609502  0.23698224    -0.12900
F1705       F  0.31713407  0.64664022  0.30114328    -0.13400
C1706       C  0.36956209  0.59893041  0.22896473     0.16300
C1707       C  0.37769145  0.58263119  0.22773805     0.25700
C1708       C  0.38214729  0.57377529  0.26556623    -0.40600
C1709       C  0.37583749  0.58083514  0.30407642     0.32700
C1710       C  0.36763701  0.59713788  0.30512495     0.14400
F1711       F  0.36578781  0.60710438  0.19199392    -0.12900
F1712       F  0.37704498  0.57178294  0.34083381    -0.13400
F1713       F  0.38021668  0.57527322  0.18920220    -0.15700
F1714       F  0.36254843  0.60380856  0.34295019    -0.14300
F1715       F  0.33089560  0.61388995  0.30056425    -0.14300
F1716       F  0.36919385  0.66864840  0.23695126    -0.15700
C1717       C  0.40025864  0.72531879  0.44520057     0.14400
C1718       C  0.38328580  0.71959794  0.45338219     0.01300
C1719       C  0.37708299  0.71939140  0.49507147     0.16300
C1720       C  0.38763503  0.72506827  0.52834459     0.25700
C1721       C  0.40468485  0.73104570  0.52046259    -0.40600
C1722       C  0.41091711  0.73094824  0.47839958     0.32800
C1723       C  0.37165408  0.71480746  0.41818860     0.01400
F1724       F  0.36065536  0.71392281  0.50341826    -0.12900
F1725       F  0.42721047  0.73655522  0.46913311    -0.13400
C1726       C  0.36993315  0.69740848  0.40539618     0.16300
C1727       C  0.35898729  0.69304266  0.37163886     0.25700
C1728       C  0.34938807  0.70602958  0.35063784    -0.40600
C1729       C  0.35092289  0.72344312  0.36435878     0.32700
C1730       C  0.36211559  0.72777360  0.39748024     0.14400
F1731       F  0.37916056  0.68471677  0.42503216    -0.12900
F1732       F  0.34151912  0.73632237  0.34592539    -0.13400
F1733       F  0.35847492  0.67626181  0.35830623    -0.15700
F1734       F  0.36372790  0.74468406  0.40933254    -0.14300
F1735       F  0.40641228  0.72563769  0.40490080    -0.14300
F1736       F  0.38108252  0.72470209  0.56824668    -0.15700
C1737       C  0.17665961  0.73214149  0.62862921     0.14400
C1738       C  0.18614801  0.74750635  0.62281129     0.01300
C1739       C  0.19482760  0.75029557  0.58450523     0.16300
C1740       C  0.19378763  0.73802164  0.55203658     0.25700
C1741       C  0.18443926  0.72225000  0.55744533    -0.40600
C1742       C  0.17564135  0.71968960  0.59639876     0.32800
C1743       C  0.18558932  0.76132796  0.65524138     0.01400
F1744       F  0.20400232  0.76517267  0.57815469    -0.12900
F1745       F  0.16483555  0.70606798  0.60294623    -0.13400
C1746       C  0.19350477  0.75893890  0.69460192     0.16300
C1747       C  0.19220181  0.77175706  0.72584407     0.25700
C1748       C  0.18304137  0.78748147  0.71844027    -0.40600
C1749       C  0.17468024  0.78942941  0.67869400     0.32700
C1750       C  0.17617316  0.77657683  0.64756297     0.14400
F1751       F  0.20243897  0.74409112  0.70286749    -0.12900
F1752       F  0.16411665  0.80297675  0.66973545    -0.13400
F1753       F  0.19969562  0.76859379  0.76396918    -0.15700
F1754       F  0.16771825  0.77869588  0.61020594    -0.14300
F1755       F  0.16748742  0.72965339  0.66487703    -0.14300
F1756       F  0.20142293  0.74198207  0.51445521    -0.15700
C1757       C  0.16317602  0.63487817  0.51016203     0.14400
C1758       C  0.14752765  0.63275975  0.48778604     0.01300
C1759       C  0.14101841  0.64674641  0.46392079     0.16300
C1760       C  0.14980586  0.66271390  0.46328630     0.25700
C1761       C  0.16516787  0.66494476  0.48667510    -0.40600
C1762       C  0.17185283  0.65088822  0.50986634     0.32800
C1763       C  0.13792162  0.61603887  0.49011014     0.01400
F1764       F  0.12585009  0.64510527  0.44241073    -0.12900
F1765       F  0.18684305  0.65266804  0.53202964    -0.13400
C1766       C  0.13204420  0.60971299  0.52922107     0.16300
C1767       C  0.12408310  0.59336966  0.53233604     0.25700
C1768       C  0.12139849  0.58296502  0.49582826    -0.40600
C1769       C  0.12756486  0.58953205  0.45660670     0.32700
C1770       C  0.13543600  0.60591024  0.45378048     0.14400
F1771       F  0.13444822  0.61925550  0.56491828    -0.12900
F1772       F  0.12679279  0.57972508  0.42090335    -0.13400
F1773       F  0.12035680  0.58753461  0.57174517    -0.15700
F1774       F  0.14146129  0.61150039  0.41571246    -0.14300
F1775       F  0.17008421  0.62137128  0.53213747    -0.14300
F1776       F  0.14289190  0.67622896  0.44136976    -0.15700
C1777       C  0.12966156  0.74568631  0.28834619     0.14400
C1778       C  0.12667873  0.72978175  0.30879997     0.01300
C1779       C  0.11295333  0.71912011  0.29539995     0.16300
C1780       C  0.10220774  0.72436423  0.26206692     0.25700
C1781       C  0.10502621  0.74044052  0.24155744    -0.40600
C1782       C  0.11901698  0.75096068  0.25493091     0.32800
C1783       C  0.13775887  0.72445701  0.34459720     0.01400
F1784       F  0.11003580  0.70356318  0.31454126    -0.12900
F1785       F  0.12239936  0.76645575  0.23598713    -0.13400
C1786       C  0.13084466  0.72377048  0.38569351     0.16300
C1787       C  0.14133137  0.71888726  0.41972661     0.25700
C1788       C  0.15885041  0.71448013  0.41302712    -0.40600
C1789       C  0.16578239  0.71522578  0.37191996     0.32700
C1790       C  0.15531402  0.72027713  0.33792553     0.14400
F1791       F  0.11397772  0.72803797  0.39284452    -0.12900
F1792       F  0.18278162  0.71148921  0.36487988    -0.13400
F1793       F  0.13427856  0.71807961  0.45910221    -0.15700
F1794       F  0.16224080  0.72097562  0.29841618    -0.14300
F1795       F  0.14269215  0.75630500  0.30144692    -0.14300
F1796       F  0.08903444  0.71369836  0.25012208    -0.15700
C1797       C  0.23492054  0.67583939  0.39752051     0.14400
C1798       C  0.24526425  0.69029551  0.38699167     0.01300
C1799       C  0.23969472  0.70705394  0.39824880     0.16300
C1800       C  0.22421127  0.70934455  0.42053195     0.25700
C1801       C  0.21413315  0.69489007  0.43244772    -0.40600
C1802       C  0.21938576  0.67813069  0.42014676     0.32800
C1803       C  0.26193912  0.68818067  0.36435174     0.01400
F1804       F  0.24933855  0.72121502  0.38773182    -0.12900
F1805       F  0.20991309  0.66399389  0.43167936    -0.13400
C1806       C  0.26212617  0.68415110  0.32106131     0.16300
C1807       C  0.27775733  0.68449934  0.29833996     0.25700
C1808       C  0.29347086  0.68875572  0.31875540    -0.40600
C1809       C  0.29329932  0.69205509  0.36254031     0.32700
C1810       C  0.27764195  0.69185118  0.38507852     0.14400
F1811       F  0.24704285  0.68072243  0.30044553    -0.12900
F1812       F  0.30808628  0.69665770  0.38303633    -0.13400
F1813       F  0.27747992  0.68102822  0.25621152    -0.15700
F1814       F  0.27769156  0.69584784  0.42694158    -0.14300
F1815       F  0.24018843  0.65952914  0.38715984    -0.14300
F1816       F  0.21901732  0.72572739  0.43056978    -0.15700
C1817       C  0.04186375  0.00814416  0.59097404     0.14400
C1818       C  0.04932296  0.99148133  0.58924894     0.01300
C1819       C  0.04454792  0.98045354  0.55570139     0.16300
C1820       C  0.03153049  0.98528492  0.52684918     0.25700
C1821       C  0.02218199  0.00111879  0.53190764    -0.40600
C1822       C  0.02887656  0.01305519  0.56221780     0.32800
C1823       C  0.06145426  0.98531710  0.62322210     0.01400
F1824       F  0.05258555  0.96485841  0.55070977    -0.12900
F1825       F  0.02160805  0.02903245  0.56688382    -0.13400
C1826       C  0.05783366  0.96985663  0.64553262     0.16300
C1827       C  0.06887907  0.96403939  0.67787246     0.25700
C1828       C  0.08382424  0.97356621  0.68903534    -0.40600
C1829       C  0.08734468  0.98916533  0.66727056     0.32700
C1830       C  0.07635392  0.99492448  0.63456011     0.14400
F1831       F  0.04324768  0.96058738  0.63683477    -0.12900
F1832       F  0.10171552  0.99860921  0.67684317    -0.13400
F1833       F  0.06460310  0.94933128  0.69931243    -0.15700
F1834       F  0.08048840  0.00972718  0.61336422    -0.14300
F1835       F  0.04627320  0.01935908  0.62236617    -0.14300
F1836       F  0.02875122  0.97451389  0.49357747    -0.15700
C1837       C  0.05592846  0.98845525  0.85417112     0.14400
C1838       C  0.05918636  0.98440036  0.89688725     0.01300
C1839       C  0.07531443  0.97726279  0.90815189     0.16300
C1840       C  0.08761973  0.97341746  0.87699633     0.25700
C1841       C  0.08388703  0.97636999  0.83394642    -0.40600
C1842       C  0.06820574  0.98448619  0.82291603     0.32800
C1843       C  0.04556296  0.98723562  0.92932332     0.01400
F1844       F  0.07882343  0.97321220  0.94908968    -0.12900
F1845       F  0.06428460  0.98755899  0.78171161    -0.13400
C1846       C  0.02934894  0.97909852  0.92542886     0.16300
C1847       C  0.01591576  0.98300895  0.95365685     0.25700
C1848       C  0.01802042  0.99604025  0.98515615    -0.40600
C1849       C  0.03522280  0.00208598  0.99247612     0.32700
C1850       C  0.04863636  0.99804278  0.96423442     0.14400
F1851       F  0.02634054  0.96771051  0.89338564    -0.12900
F1852       F  0.03950898  0.01153291  0.02715086    -0.13400
F1853       F  0.00024203  0.97534588  0.94731756    -0.15700
F1854       F  0.06457393  0.00517547  0.97037953    -0.14300
F1855       F  0.04065230  0.99589153  0.84264544    -0.14300
F1856       F  0.10303333  0.96633553  0.88879989    -0.15700
C1857       C  0.12131662  0.89823362  0.79833912     0.14400
C1858       C  0.13597127  0.89457395  0.77355559     0.01300
C1859       C  0.14135103  0.90671186  0.74315543     0.16300
C1860       C  0.13274414  0.92264664  0.73898225     0.25700
C1861       C  0.11893180  0.92722532  0.76641923    -0.40600
C1862       C  0.11266461  0.91417695  0.79442714     0.32800
C1863       C  0.14522154  0.87777346  0.77793591     0.01400
F1864       F  0.15494360  0.90305958  0.71720509    -0.12900
F1865       F  0.09768335  0.91602224  0.81647554    -0.13400
C1866       C  0.13675602  0.86212481  0.76788854     0.16300
C1867       C  0.14575888  0.84634832  0.76955339     0.25700
C1868       C  0.16333038  0.84594596  0.78169408    -0.40600
C1869       C  0.17165249  0.86148936  0.79313458     0.32700
C1870       C  0.16268777  0.87733683  0.79098146     0.14400
F1871       F  0.11987990  0.86219071  0.75543881    -0.12900
F1872       F  0.18859506  0.86137299  0.80498882    -0.13400
F1873       F  0.13727881  0.83139732  0.75962323    -0.15700
F1874       F  0.17102609  0.89227991  0.80158153    -0.14300
F1875       F  0.11539506  0.88633790  0.82671357    -0.14300
F1876       F  0.13822444  0.93381915  0.70844755    -0.15700
C1877       C  0.18594362  0.03477175  0.77839392     0.14400
C1878       C  0.17611277  0.02468503  0.80678640     0.01300
C1879       C  0.18119607  0.02392431  0.84945054     0.16300
C1880       C  0.19598773  0.03281867  0.86336116     0.25700
C1881       C  0.20603045  0.04278232  0.83489700    -0.40600
C1882       C  0.20073056  0.04373509  0.79222830     0.32800
C1883       C  0.16128897  0.01400591  0.79154216     0.01400
F1884       F  0.17211938  0.01409961  0.87755049    -0.12900
F1885       F  0.20984799  0.05328546  0.76366263    -0.13400
C1886       C  0.16400161  0.00137004  0.76008573     0.16300
C1887       C  0.15063541  0.99002275  0.74852365     0.25700
C1888       C  0.13432547  0.99082932  0.76873198    -0.40600
C1889       C  0.13136093  0.00397927  0.79890905     0.32700
C1890       C  0.14471980  0.01550512  0.81008900     0.14400
F1891       F  0.17993708  0.99932433  0.74226722    -0.12900
F1892       F  0.11597988  0.00494664  0.81982385    -0.13400
F1893       F  0.15385946  0.97776582  0.71856030    -0.15700
F1894       F  0.14163666  0.02780724  0.84001854    -0.14300
F1895       F  0.18116569  0.03599190  0.73714745    -0.14300
F1896       F  0.20049537  0.03151394  0.90476900    -0.15700
C1897       C  0.00718516  0.05304782  0.45694334     0.14400
C1898       C  0.01890401  0.05038645  0.42349500     0.01300
C1899       C  0.02783482  0.03452439  0.42136285     0.16300
C1900       C  0.02419477  0.02109118  0.44999935     0.25700
C1901       C  0.01080913  0.02272462  0.48082967    -0.40600
C1902       C  0.00344442  0.03962298  0.48585484     0.32800
C1903       C  0.02188744  0.06395238  0.39045822     0.01400
F1904       F  0.03991885  0.03186587  0.39068959    -0.12900
F1905       F  0.99308765  0.04369575  0.51912604    -0.13400
C1906       C  0.02962542  0.07997575  0.40067041     0.16300
C1907       C  0.03393662  0.09194505  0.36870351     0.25700
C1908       C  0.03039614  0.08824736  0.32580979    -0.40600
C1909       C  0.02175638  0.07259461  0.31601663     0.32700
C1910       C  0.01776343  0.06050928  0.34790268     0.14400
F1911       F  0.03370101  0.08371889  0.44145269    -0.12900
F1912       F  0.01792683  0.06849454  0.27535251    -0.13400
F1913       F  0.04174578  0.10712532  0.37969975    -0.15700
F1914       F  0.01014031  0.04520453  0.33709933    -0.14300
F1915       F  0.99903144  0.06861920  0.46119595    -0.14300
F1916       F  0.03275530  0.00579351  0.44495652    -0.15700
C1917       C  0.01692853  0.07833594  0.11655911     0.14400
C1918       C  0.02046903  0.06051277  0.12195872     0.01300
C1919       C  0.03029494  0.05511763  0.15712175     0.16300
C1920       C  0.03599384  0.06720448  0.18701177     0.25700
C1921       C  0.03198465  0.08488656  0.18235625    -0.40600
C1922       C  0.02286694  0.09047374  0.14635088     0.32800
C1923       C  0.01374880  0.04727619  0.09199425     0.01400
F1924       F  0.03450104  0.03808633  0.16229122    -0.12900
F1925       F  0.02014820  0.10767818  0.13943616    -0.13400
C1926       C  0.01781580  0.04779738  0.04874448     0.16300
C1927       C  0.01307085  0.03401139  0.02210876     0.25700
C1928       C  0.00499621  0.01877881  0.03850488    -0.40600
C1929       C  0.99905190  0.01966507  0.08121200     0.32700
C1930       C  0.00367156  0.03350913  0.10738102     0.14400
F1931       F  0.02710480  0.06126600  0.03252447    -0.12900
F1932       F  0.98811821  0.00768710  0.09813868    -0.13400
F1933       F  0.01756561  0.03511931  0.98068537    -0.15700
F1934       F  0.99815815  0.03350342  0.14824850    -0.14300
F1935       F  0.00748527  0.08393756  0.08295806    -0.14300
F1936       F  0.04556863  0.06166618  0.22045825    -0.15700
C1937       C  0.10910581  0.12082179  0.23518494     0.14400
C1938       C  0.11213817  0.13721112  0.25361916     0.01300
C1939       C  0.09831314  0.14550859  0.27460258     0.16300
C1940       C  0.08180909  0.13791277  0.27592612     0.25700
C1941       C  0.07817658  0.12241626  0.25344618    -0.40600
C1942       C  0.09244546  0.11341280  0.23544368     0.32800
C1943       C  0.12968274  0.14552328  0.25160857     0.01400
F1944       F  0.10060565  0.16127681  0.29315876    -0.12900
F1945       F  0.09075726  0.09699638  0.22027075    -0.13400
C1946       C  0.13857629  0.14702104  0.21291121     0.16300
C1947       C  0.15498571  0.15485202  0.21089880     0.25700
C1948       C  0.16260527  0.16253391  0.24718936    -0.40600
C1949       C  0.15343299  0.16116086  0.28590160     0.32700
C1950       C  0.13755451  0.15228624  0.28821521     0.14400
F1951       F  0.13130621  0.14104325  0.17656436    -0.12900
F1952       F  0.15944806  0.16870472  0.32180036    -0.13400
F1953       F  0.16340945  0.15424387  0.17324577    -0.15700
F1954       F  0.12994364  0.15015795  0.32666342    -0.14300
F1955       F  0.12242034  0.11168501  0.21778453    -0.14300
F1956       F  0.06936144  0.14584838  0.29951416    -0.15700
C1957       C  0.98814868  0.19408223  0.18571243     0.14400
C1958       C  0.97995402  0.17897345  0.20116880     0.01300
C1959       C  0.96168359  0.17833861  0.20145282     0.16300
C1960       C  0.95185778  0.19252840  0.18679092     0.25700
C1961       C  0.96009152  0.20777274  0.17175357    -0.40600
C1962       C  0.97839141  0.20831816  0.17160029     0.32800
C1963       C  0.99066469  0.16416992  0.21732080     0.01400
F1964       F  0.95330515  0.16413782  0.21690906    -0.12900
F1965       F  0.98698191  0.22274144  0.15823155    -0.13400
C1966       C  0.00365072  0.16722513  0.24766650     0.16300
C1967       C  0.01535230  0.15409773  0.25886267     0.25700
C1968       C  0.01427598  0.13740368  0.24046737    -0.40600
C1969       C  0.00021237  0.13385130  0.21328238     0.32700
C1970       C  0.98872212  0.14717903  0.20120902     0.14400
F1971       F  0.00522540  0.18312002  0.26604846    -0.12900
F1972       F  0.99797071  0.11776240  0.19664137    -0.13400
F1973       F  0.02792565  0.15783715  0.28756267    -0.15700
F1974       F  0.97630072  0.14366573  0.17197694    -0.14300
F1975       F  0.00574939  0.19502482  0.18382260    -0.14300
F1976       F  0.93426645  0.19129959  0.18752570    -0.15700
C1977       C  0.98084757  0.95242655  0.17072288     0.14400
C1978       C  0.98073375  0.94731323  0.12786897     0.01300
C1979       C  0.97549444  0.93028595  0.11762268     0.16300
C1980       C  0.97010019  0.91876352  0.14945826     0.25700
C1981       C  0.97018591  0.92394163  0.19213636    -0.40600
C1982       C  0.97580130  0.94078110  0.20256663     0.32800
C1983       C  0.98635811  0.95974071  0.09431847     0.01400
F1984       F  0.97595981  0.92469505  0.07688451    -0.12900
F1985       F  0.97583337  0.94616245  0.24349761    -0.13400
C1986       C  0.00275734  0.96751946  0.09663767     0.16300
C1987       C  0.00759991  0.98045851  0.06794878     0.25700
C1988       C  0.99603448  0.98646255  0.03597423    -0.40600
C1989       C  0.98030570  0.97699194  0.03093873     0.32700
C1990       C  0.97539490  0.96418340  0.06045136     0.14400
F1991       F  0.01409960  0.96280355  0.12746932    -0.12900
F1992       F  0.96970714  0.97953294  0.99731809    -0.13400
F1993       F  0.02336447  0.98796889  0.07352564    -0.15700
F1994       F  0.95963715  0.95641845  0.05648411    -0.14300
F1995       F  0.98549390  0.96886988  0.18167818    -0.14300
F1996       F  0.96512446  0.90239509  0.13874967    -0.15700
C1997       C  0.99022451  0.93455922  0.38793075     0.14400
C1998       C  0.98024938  0.94962547  0.39497036     0.01300
C1999       C  0.96480347  0.95198995  0.37202278     0.16300
C2000       C  0.95953302  0.93968454  0.34214861     0.25700
C2001       C  0.96960758  0.92474037  0.33455055    -0.40600
C2002       C  0.98499583  0.92224958  0.35766064     0.32800
C2003       C  0.98654337  0.96366324  0.42334240     0.01400
F2004       F  0.95491994  0.96640740  0.37820592    -0.12900
F2005       F  0.99484261  0.90783521  0.35119865    -0.13400
C2006       C  0.99010479  0.98007748  0.40640995     0.16300
C2007       C  0.99516692  0.99385081  0.43236975     0.25700
C2008       C  0.99856557  0.99130368  0.47637919    -0.40600
C2009       C  0.99380708  0.97479687  0.49331858     0.32700
C2010       C  0.98803086  0.96120538  0.46713015     0.14400
F2011       F  0.98824102  0.98295612  0.36422558    -0.12900
F2012       F  0.99494209  0.97168071  0.53548926    -0.13400
F2013       F  0.99517006  0.00977076  0.41391839    -0.15700
F2014       F  0.98352345  0.94572447  0.48471717    -0.14300
F2015       F  0.00527014  0.93205557  0.40943658    -0.14300
F2016       F  0.94485313  0.94268156  0.31950973    -0.15700
C2017       C  0.00309816  0.84653147  0.26997235     0.14400
C2018       C  0.01382168  0.84882090  0.23434990     0.01300
C2019       C  0.01317870  0.86473226  0.21230843     0.16300
C2020       C  0.00119989  0.87763663  0.22393016     0.25700
C2021       C  0.98957141  0.87477032  0.25759549    -0.40600
C2022       C  0.99106926  0.85936181  0.28142732     0.32800
C2023       C  0.02421172  0.83396943  0.21777329     0.01400
F2024       F  0.02367402  0.86746591  0.17837979    -0.12900
F2025       F  0.98032162  0.85640758  0.31479157    -0.13400
C2026       C  0.02054666  0.82711563  0.17751358     0.16300
C2027       C  0.02934242  0.81239086  0.16250994     0.25700
C2028       C  0.04200636  0.80407280  0.18754817    -0.40600
C2029       C  0.04577590  0.81109015  0.22783510     0.32700
C2030       C  0.03696557  0.82587479  0.24272280     0.14400
F2031       F  0.00794322  0.83435692  0.15319157    -0.12900
F2032       F  0.05810237  0.80376800  0.25283002    -0.13400
F2033       F  0.02509556  0.80605438  0.12378191    -0.15700
F2034       F  0.04095149  0.83235736  0.28149554    -0.14300
F2035       F  0.00342935  0.83135781  0.29197393    -0.14300
F2036       F  0.00007731  0.89230409  0.20015077    -0.15700
C2037       C  0.93202389  0.01516769  0.62858272     0.14400
C2038       C  0.94775599  0.02400398  0.62146029     0.01300
C2039       C  0.95132039  0.03928161  0.64416885     0.16300
C2040       C  0.93938755  0.04569295  0.67360161     0.25700
C2041       C  0.92374975  0.03679485  0.68131415    -0.40600
C2042       C  0.92013062  0.02146532  0.65867353     0.32800
C2043       C  0.96107146  0.01713869  0.59208188     0.01400
F2044       F  0.96648783  0.04794127  0.63788734    -0.12900
F2045       F  0.90500399  0.01278910  0.66526066    -0.13400
C2046       C  0.95936654  0.01899372  0.54823231     0.16300
C2047       C  0.97331015  0.01498158  0.52126680     0.25700
C2048       C  0.98957036  0.00927459  0.53758834    -0.40600
C2049       C  0.98996479  0.00523473  0.58172997     0.32700
C2050       C  0.97623907  0.00982131  0.60841377     0.14400
F2051       F  0.94442303  0.02539545  0.53162835    -0.12900
F2052       F  0.00294168  0.99592317  0.59976753    -0.13400
F2053       F  0.97112797  0.01753735  0.47912755    -0.15700
F2054       F  0.97773482  0.00698631  0.65069866    -0.14300
F2055       F  0.92835990  0.00034753  0.60697657    -0.14300
F2056       F  0.94330517  0.06039827  0.69542624    -0.15700
C2057       C  0.95106899  0.04592780  0.86967107     0.14400
C2058       C  0.94908179  0.02961560  0.88914949     0.01300
C2059       C  0.93566965  0.01857269  0.87572480     0.16300
C2060       C  0.92445036  0.02367686  0.84312186     0.25700
C2061       C  0.92625439  0.04010479  0.82368122    -0.40600
C2062       C  0.93979648  0.05114275  0.83732323     0.32800
C2063       C  0.96218224  0.02332940  0.91991823     0.01400
F2064       F  0.93381491  0.00255131  0.89327715    -0.12900
F2065       F  0.94263834  0.06671281  0.81820146    -0.13400
C2066       C  0.95812801  0.02077225  0.96273051     0.16300
C2067       C  0.97072633  0.01443902  0.99096293     0.25700
C2068       C  0.98763154  0.00970481  0.97682223    -0.40600
C2069       C  0.99172152  0.01397215  0.93384748     0.32700
C2070       C  0.97907942  0.02009610  0.90603432     0.14400
F2071       F  0.94201720  0.02470655  0.97740434    -0.12900
F2072       F  0.00814346  0.01366211  0.91830593    -0.13400
F2073       F  0.96621473  0.01272750  0.03226035    -0.15700
F2074       F  0.98350224  0.02315394  0.86505109    -0.14300
F2075       F  0.96418031  0.05669525  0.88153379    -0.14300
F2076       F  0.91180865  0.01248007  0.83091532    -0.15700
C2077       C  0.87002565  0.10487101  0.79588997     0.14400
C2078       C  0.86804263  0.11578128  0.76084569     0.01300
C2079       C  0.87511689  0.11075180  0.72175612     0.16300
C2080       C  0.88392972  0.09486303  0.71760091     0.25700
C2081       C  0.88628260  0.08383183  0.75315807    -0.40600
C2082       C  0.87879154  0.08908802  0.79209588     0.32800
C2083       C  0.85794899  0.13206736  0.76504411     0.01400
F2084       F  0.87278867  0.12089961  0.68701992    -0.12900
F2085       F  0.87942357  0.07859366  0.82664797    -0.13400
C2086       C  0.86605084  0.14824864  0.75917446     0.16300
C2087       C  0.85652615  0.16362105  0.76366327     0.25700
C2088       C  0.83872497  0.16303322  0.77374673    -0.40600
C2089       C  0.83070687  0.14689131  0.78068561     0.32700
C2090       C  0.84024920  0.13148634  0.77622420     0.14400
F2091       F  0.88324308  0.14914340  0.74973741    -0.12900
F2092       F  0.81353675  0.14603466  0.79033762    -0.13400
F2093       F  0.86471547  0.17914391  0.75867238    -0.15700
F2094       F  0.83215500  0.11595495  0.78189907    -0.14300
F2095       F  0.86328834  0.10946979  0.83402345    -0.14300
F2096       F  0.88882290  0.09008013  0.67810752    -0.15700
C2097       C  0.69321129  0.51967627  0.29481103     0.14400
C2098       C  0.67695725  0.52609768  0.30784108     0.01300
C2099       C  0.67638092  0.54083646  0.33407236     0.16300
C2100       C  0.69176851  0.54894749  0.34730372     0.25700
C2101       C  0.70815135  0.54248338  0.33456067    -0.40600
C2102       C  0.70863116  0.52776170  0.30792737     0.32800
C2103       C  0.66081096  0.51650171  0.29667389     0.01400
F2104       F  0.66086307  0.54740427  0.34687583    -0.12900
F2105       F  0.72402057  0.52088290  0.29524366    -0.13400
C2106       C  0.65095948  0.50848380  0.32871394     0.16300
C2107       C  0.63766061  0.49683688  0.31836164     0.25700
C2108       C  0.63350542  0.49351393  0.27586511    -0.40600
C2109       C  0.64259084  0.50230142  0.24377081     0.32700
C2110       C  0.65620015  0.51369495  0.25408405     0.14400
F2111       F  0.65508069  0.51090686  0.37005797    -0.12900
F2112       F  0.63902256  0.49898017  0.20248473    -0.13400
F2113       F  0.62975648  0.48774881  0.34980443    -0.15700
F2114       F  0.66530421  0.52149886  0.22251766    -0.14300
F2115       F  0.69416479  0.50512740  0.27051914    -0.14300
F2116       F  0.69054893  0.56319257  0.37254881    -0.15700
C2117       C  0.83240111  0.54200724  0.44321484     0.14400
C2118       C  0.83184617  0.52410511  0.45204002     0.01300
C2119       C  0.81612678  0.51505989  0.44610220     0.16300
C2120       C  0.80123286  0.52375407  0.43192992     0.25700
C2121       C  0.80176173  0.54169040  0.42278870    -0.40600
C2122       C  0.81758024  0.55069984  0.42856950     0.32800
C2123       C  0.84757655  0.51476232  0.46732430     0.01400
F2124       F  0.81527287  0.49765251  0.45323984    -0.12900
F2125       F  0.81872934  0.56802739  0.42063416    -0.13400
C2126       C  0.84691800  0.50510788  0.50509231     0.16300
C2127       C  0.86089403  0.49458114  0.51702476     0.25700
C2128       C  0.87592163  0.49365759  0.49175993    -0.40600
C2129       C  0.87712061  0.50424559  0.45557153     0.32700
C2130       C  0.86301251  0.51464179  0.44328996     0.14400
F2131       F  0.83249257  0.50549319  0.52985789    -0.12900
F2132       F  0.89133518  0.50344150  0.43016934    -0.13400
F2133       F  0.85947603  0.48464852  0.55241244    -0.15700
F2134       F  0.86401304  0.52367247  0.40642618    -0.14300
F2135       F  0.84724305  0.55118309  0.44961126    -0.14300
F2136       F  0.78638091  0.51448981  0.42652317    -0.15700
C2137       C  0.86882227  0.63991402  0.00182999     0.14400
C2138       C  0.88306538  0.64888034  0.01865504     0.01300
C2139       C  0.88066062  0.66537123  0.03692641     0.16300
C2140       C  0.86412250  0.67293608  0.03780354     0.25700
C2141       C  0.84985949  0.66401557  0.02057302    -0.40600
C2142       C  0.85232007  0.64735399  0.00300437     0.32800
C2143       C  0.90041171  0.64088599  0.01701054     0.01400
F2144       F  0.89440107  0.67424348  0.05302039    -0.12900
F2145       F  0.83866866  0.63811864  0.98765596    -0.13400
C2146       C  0.90920530  0.63942991  0.97839079     0.16300
C2147       C  0.92550545  0.63150594  0.97654538     0.25700
C2148       C  0.93310688  0.62416551  0.01319898    -0.40600
C2149       C  0.92456546  0.62691935  0.05249915     0.32700
C2150       C  0.90823974  0.63480464  0.05403916     0.14400
F2151       F  0.90218218  0.64616800  0.94256208    -0.12900
F2152       F  0.93223829  0.62317862  0.08999792    -0.13400
F2153       F  0.93412459  0.63176324  0.93904011    -0.15700
F2154       F  0.90011672  0.63671958  0.09194760    -0.14300
F2155       F  0.87090970  0.62383656  0.98471070    -0.14300
F2156       F  0.86214862  0.68916415  0.05409970    -0.15700
C2157       C  0.81068505  0.63555819  0.15501981     0.14400
C2158       C  0.79373133  0.63592011  0.17164470     0.01300
C2159       C  0.78153593  0.64751473  0.15433640     0.16300
C2160       C  0.78602905  0.65819605  0.12024236     0.25700
C2161       C  0.80280962  0.65749723  0.10275064    -0.40600
C2162       C  0.81524014  0.64638120  0.12102511     0.32800
C2163       C  0.78854464  0.62425948  0.20689263     0.01400
F2164       F  0.76508925  0.64817547  0.16985302    -0.12900
F2165       F  0.83160073  0.64552534  0.10505915    -0.13400
C2166       C  0.78228699  0.63136488  0.24486508     0.16300
C2167       C  0.77590800  0.62058194  0.27691695     0.25700
C2168       C  0.77578635  0.60233476  0.27192661    -0.40600
C2169       C  0.78258724  0.59519022  0.23423181     0.32700
C2170       C  0.78884165  0.60607726  0.20198091     0.14400
F2171       F  0.78231727  0.64886210  0.25088245    -0.12900
F2172       F  0.78302084  0.57769964  0.22821373    -0.13400
F2173       F  0.76972909  0.62813267  0.31274985    -0.15700
F2174       F  0.79467196  0.59888026  0.16536686    -0.14300
F2175       F  0.82280848  0.62473594  0.17174033    -0.14300
F2176       F  0.77399311  0.66934955  0.10445353    -0.15700
C2177       C  0.86574085  0.86104516  0.21123426     0.14400
C2178       C  0.87718406  0.85655236  0.24404334     0.01300
C2179       C  0.87259632  0.84313180  0.27215420     0.16300
C2180       C  0.85647975  0.83484037  0.26858246     0.25700
C2181       C  0.84471510  0.83985181  0.23684719    -0.40600
C2182       C  0.84965964  0.85272611  0.20755503     0.32800
C2183       C  0.89369473  0.86617474  0.24950694     0.01400
F2184       F  0.88371126  0.83814100  0.30318937    -0.12900
F2185       F  0.83855273  0.85801850  0.17684314    -0.13400
C2186       C  0.89680755  0.87570543  0.28654658     0.16300
C2187       C  0.91238982  0.88484472  0.29199913     0.25700
C2188       C  0.92539352  0.88467869  0.26004111    -0.40600
C2189       C  0.92196199  0.87492834  0.22288489     0.32700
C2190       C  0.90633869  0.86593765  0.21767166     0.14400
F2191       F  0.88461957  0.87623182  0.31766827    -0.12900
F2192       F  0.93399705  0.87379984  0.19151937    -0.13400
F2193       F  0.91444820  0.89319641  0.32929881    -0.15700
F2194       F  0.90372333  0.85659731  0.18176096    -0.14300
F2195       F  0.86982236  0.87406382  0.18390526    -0.14300
F2196       F  0.85229789  0.82197407  0.29624595    -0.15700
C2197       C  0.79934394  0.76612360  0.15603857     0.14400
C2198       C  0.81592676  0.76105071  0.14232389     0.01300
C2199       C  0.83020617  0.77195357  0.15018898     0.16300
C2200       C  0.82793587  0.78770290  0.17185538     0.25700
C2201       C  0.81130799  0.79282824  0.18559756    -0.40600
C2202       C  0.79701594  0.78188982  0.17728690     0.32800
C2203       C  0.81806898  0.74452796  0.11895822     0.01400
F2204       F  0.84637937  0.76715964  0.13758741    -0.12900
F2205       F  0.78068632  0.78663578  0.18878780    -0.13400
C2206       C  0.82215308  0.74474237  0.07566089     0.16300
C2207       C  0.82235355  0.72924786  0.05243859     0.25700
C2208       C  0.81851759  0.71327804  0.07225225    -0.40600
C2209       C  0.81494653  0.71305011  0.11591145     0.32700
C2210       C  0.81469033  0.72857050  0.13904181     0.14400
F2211       F  0.82510261  0.76006714  0.05548351    -0.12900
F2212       F  0.81056054  0.69798804  0.13567672    -0.13400
F2213       F  0.82592712  0.72989107  0.01036442    -0.15700
F2214       F  0.81061836  0.72811392  0.18085589    -0.14300
F2215       F  0.78532171  0.75591791  0.14801725    -0.14300
F2216       F  0.84207258  0.79761735  0.18066016    -0.15700
C2217       C  0.69602362  0.98355562  0.98005989     0.14400
C2218       C  0.68140487  0.98396632  0.95349138     0.01300
C2219       C  0.68193114  0.97509030  0.91475039     0.16300
C2220       C  0.69693033  0.96626049  0.90215157     0.25700
C2221       C  0.71191348  0.96631539  0.92785010    -0.40600
C2222       C  0.71116095  0.97479175  0.96742912     0.32800
C2223       C  0.66604427  0.99467366  0.96447264     0.01400
F2224       F  0.66788124  0.97512151  0.88881897    -0.12900
F2225       F  0.72513318  0.97493068  0.99359746    -0.13400
C2226       C  0.66203467  0.00930310  0.93975744     0.16300
C2227       C  0.64801330  0.01994326  0.95044649     0.25700
C2228       C  0.63766128  0.01615595  0.98604236    -0.40600
C2229       C  0.64121049  0.00114305  0.00988797     0.32700
C2230       C  0.65541652  0.99050807  0.99930607     0.14400
F2231       F  0.67203707  0.01356064  0.90584608    -0.12900
F2232       F  0.63140323  0.99720245  0.04431394    -0.13400
F2233       F  0.64462385  0.03413224  0.92618256    -0.15700
F2234       F  0.65886089  0.97619329  0.02302235    -0.14300
F2235       F  0.69585114  0.99220734  0.01752881    -0.14300
F2236       F  0.69671954  0.95771744  0.86453844    -0.15700
C2237       C  0.83108644  0.97092032  0.80015818     0.14400
C2238       C  0.83223164  0.98887344  0.80746788     0.01300
C2239       C  0.81831224  0.99750465  0.82714253     0.16300
C2240       C  0.80353891  0.98827593  0.84001097     0.25700
C2241       C  0.80238176  0.97017231  0.83330606    -0.40600
C2242       C  0.81631070  0.96163981  0.81281914     0.32800
C2243       C  0.84789518  0.99873737  0.79466482     0.01400
F2244       F  0.81898854  0.01497130  0.83351129    -0.12900
F2245       F  0.81584499  0.94422864  0.80562133    -0.13400
C2246       C  0.85183265  0.00119285  0.75160032     0.16300
C2247       C  0.86546689  0.01223163  0.73957587     0.25700
C2248       C  0.87540129  0.02075720  0.77047331    -0.40600
C2249       C  0.87176406  0.01791518  0.81348734     0.32700
C2250       C  0.85822157  0.00685205  0.82550964     0.14400
F2251       F  0.84179010  0.99376465  0.72128669    -0.12900
F2252       F  0.88051568  0.02684675  0.84378866    -0.13400
F2253       F  0.86825739  0.01549546  0.69788948    -0.15700
F2254       F  0.85472823  0.00457506  0.86728394    -0.14300
F2255       F  0.84447842  0.96230472  0.78158886    -0.14300
F2256       F  0.79038406  0.99712735  0.85890683    -0.15700
C2257       C  0.77023282  0.88136258  0.03184350     0.14400
C2258       C  0.78716865  0.88267720  0.04772972     0.01300
C2259       C  0.79860840  0.89502711  0.03067693     0.16300
C2260       C  0.79312635  0.90610237  0.99822398     0.25700
C2261       C  0.77602206  0.90501928  0.98245487    -0.40600
C2262       C  0.76468452  0.89238744  0.99943758     0.32800
C2263       C  0.79247693  0.87178437  0.08379936     0.01400
F2264       F  0.81508913  0.89635281  0.04558588    -0.12900
F2265       F  0.74810240  0.89084818  0.98533244    -0.13400
C2266       C  0.79501172  0.85381094  0.07867537     0.16300
C2267       C  0.79866972  0.84333643  0.11377941     0.25700
C2268       C  0.79952567  0.85072097  0.15439103    -0.40600
C2269       C  0.79752268  0.86881013  0.15918484     0.32700
C2270       C  0.79406058  0.87926626  0.12408283     0.14400
F2271       F  0.79370589  0.84643414  0.03976486    -0.12900
F2272       F  0.79901411  0.87635701  0.19787381    -0.13400
F2273       F  0.80065730  0.82592257  0.10836803    -0.15700
F2274       F  0.79172179  0.89664117  0.12950904    -0.14300
F2275       F  0.75889854  0.86970377  0.04866608    -0.14300
F2276       F  0.80459733  0.91783785  0.98232196    -0.15700
C2277       C  0.78207013  0.67549104  0.88105334     0.14400
C2278       C  0.76520924  0.68115841  0.89044725     0.01300
C2279       C  0.76120243  0.68628851  0.93185010     0.16300
C2280       C  0.77371115  0.68534598  0.96364828     0.25700
C2281       C  0.79075636  0.67937660  0.95500683    -0.40600
C2282       C  0.79474868  0.67465369  0.91261712     0.32800
C2283       C  0.75149322  0.68069070  0.85774070     0.01400
F2284       F  0.74506670  0.69222468  0.94157590    -0.12900
F2285       F  0.81065309  0.66919610  0.90032738    -0.13400
C2286       C  0.73659710  0.67057105  0.86436427     0.16300
C2287       C  0.72366092  0.66952705  0.83356005     0.25700
C2288       C  0.72509325  0.67907467  0.79533184    -0.40600
C2289       C  0.74065773  0.68849660  0.78819645     0.32700
C2290       C  0.75352387  0.68951076  0.81922936     0.14400
F2291       F  0.73491295  0.66097585  0.90024867    -0.12900
F2292       F  0.74360126  0.69656162  0.75059095    -0.13400
F2293       F  0.71067746  0.65804310  0.84078414    -0.15700
F2294       F  0.76797568  0.69916854  0.81162321    -0.14300
F2295       F  0.78619935  0.67023049  0.84124206    -0.14300
F2296       F  0.76905491  0.69025045  0.00339297    -0.15700
C2297       C  0.61035828  0.62876426  0.78731933     0.14400
C2298       C  0.61470181  0.63778309  0.75010285     0.01300
C2299       C  0.60258618  0.63834973  0.71703565     0.16300
C2300       C  0.58661684  0.62986107  0.72075247     0.25700
C2301       C  0.58209115  0.62055366  0.75789372    -0.40600
C2302       C  0.59424049  0.62048512  0.79158714     0.32800
C2303       C  0.63178160  0.64669306  0.74581161     0.01400
F2304       F  0.60601310  0.64753823  0.68126561    -0.12900
F2305       F  0.59074202  0.61319316  0.82959022    -0.13400
C2306       C  0.64248685  0.64344787  0.71053615     0.16300
C2307       C  0.65854393  0.65181969  0.70632829     0.25700
C2308       C  0.66451615  0.66320566  0.73795450    -0.40600
C2309       C  0.65377686  0.66648599  0.77326386     0.32700
C2310       C  0.63751320  0.65847903  0.77687306     0.14400
F2311       F  0.63765608  0.63168497  0.68072261    -0.12900
F2312       F  0.65887851  0.67766873  0.80411725    -0.13400
F2313       F  0.66854157  0.64814750  0.67210491    -0.15700
F2314       F  0.62726265  0.66243989  0.81054622    -0.14300
F2315       F  0.62181956  0.62786360  0.81987680    -0.14300
F2316       F  0.57533867  0.63102973  0.68783391    -0.15700
C2317       C  0.72114525  0.62614652  0.50879698     0.14400
C2318       C  0.72810354  0.62404347  0.54948696     0.01300
C2319       C  0.74094674  0.61134800  0.55619404     0.16300
C2320       C  0.74679951  0.60095856  0.52259140     0.25700
C2321       C  0.73977268  0.60298134  0.48168184    -0.40600
C2322       C  0.72689974  0.61576579  0.47523068     0.32800
C2323       C  0.72220284  0.63544695  0.58451665     0.01400
F2324       F  0.74807836  0.60926295  0.59514828    -0.12900
F2325       F  0.71960794  0.61809207  0.43654703    -0.13400
C2326       C  0.71376587  0.62842201  0.62011704     0.16300
C2327       C  0.70822728  0.63931724  0.65300608     0.25700
C2328       C  0.71106903  0.65736649  0.65082460    -0.40600
C2329       C  0.71980349  0.66433153  0.61568960     0.32700
C2330       C  0.72511707  0.65349303  0.58250911     0.14400
F2331       F  0.71097892  0.61101599  0.62308462    -0.12900
F2332       F  0.72407277  0.68144230  0.61455859    -0.13400
F2333       F  0.70060338  0.63220167  0.68772143    -0.15700
F2334       F  0.73375963  0.66050369  0.54911635    -0.14300
F2335       F  0.70851385  0.63812698  0.50173749    -0.14300
F2336       F  0.75957997  0.58917747  0.53000758    -0.15700
C2337       C  0.75363017  0.82357670  0.32119157     0.14400
C2338       C  0.75727574  0.82929550  0.36223223     0.01300
C2339       C  0.77394289  0.83545696  0.37175356     0.16300
C2340       C  0.78701931  0.83559648  0.34095507     0.25700
C2341       C  0.78366938  0.82942023  0.29944936    -0.40600
C2342       C  0.76655324  0.82376433  0.29015875     0.32800
C2343       C  0.74373423  0.82883335  0.39537065     0.01400
F2344       F  0.77763832  0.84122087  0.41137180    -0.12900
F2345       F  0.76225507  0.81840474  0.25055309    -0.13400
C2346       C  0.73687741  0.81291455  0.40911960     0.16300
C2347       C  0.72485065  0.81235798  0.44231591     0.25700
C2348       C  0.71993300  0.82781080  0.46373727    -0.40600
C2349       C  0.72565997  0.84384872  0.44663478     0.32700
C2350       C  0.73765183  0.84431276  0.41343260     0.14400
F2351       F  0.74200336  0.79780434  0.39062400    -0.12900
F2352       F  0.71976339  0.85919557  0.46240405    -0.13400
F2353       F  0.71750038  0.79675610  0.45111620    -0.15700
F2354       F  0.74333759  0.85992388  0.39877601    -0.14300
F2355       F  0.73742013  0.81802779  0.31096862    -0.14300
F2356       F  0.80256000  0.84218567  0.35266114    -0.15700
C2357       C  0.63959017  0.86344719  0.55159915     0.14400
C2358       C  0.62851502  0.85857283  0.51828467     0.01300
C2359       C  0.63410888  0.84582916  0.48940319     0.16300
C2360       C  0.65053903  0.83824924  0.49343433     0.25700
C2361       C  0.66175978  0.84329323  0.52640253    -0.40600
C2362       C  0.65607786  0.85591525  0.55558066     0.32800
C2363       C  0.61116055  0.86677970  0.51353161     0.01400
F2364       F  0.62353817  0.84053821  0.45752715    -0.12900
F2365       F  0.66675453  0.86158397  0.58683152    -0.13400
C2366       C  0.60662891  0.87524180  0.47579680     0.16300
C2367       C  0.59009901  0.88251765  0.47055874     0.25700
C2368       C  0.57768112  0.88199321  0.50380568    -0.40600
C2369       C  0.58234212  0.87300499  0.54127210     0.32700
C2370       C  0.59884482  0.86566545  0.54612227     0.14400
F2371       F  0.61824431  0.87634113  0.44349565    -0.12900
F2372       F  0.57069089  0.87091126  0.57319829    -0.13400
F2373       F  0.58635423  0.88892397  0.43176321    -0.15700
F2374       F  0.60260943  0.85693169  0.58232561    -0.14300
F2375       F  0.63463663  0.87592463  0.57954637    -0.14300
F2376       F  0.65537441  0.82577364  0.46535619    -0.15700
C2377       C  0.71308617  0.85733209  0.68547612     0.14400
C2378       C  0.72061191  0.87374924  0.67847182     0.01300
C2379       C  0.72255382  0.87981812  0.63681990     0.16300
C2380       C  0.71711966  0.86964942  0.60267717     0.25700
C2381       C  0.70982972  0.85305240  0.60947185    -0.40600
C2382       C  0.70776037  0.84704472  0.65126960     0.32800
C2383       C  0.72666250  0.88456862  0.71432978     0.01400
F2384       F  0.73008456  0.89549585  0.62916652    -0.12900
F2385       F  0.70120820  0.83096297  0.65909205    -0.13400
C2386       C  0.73974250  0.87849004  0.74152410     0.16300
C2387       C  0.74615904  0.88914168  0.77383818     0.25700
C2388       C  0.73962317  0.90612019  0.77946111    -0.40600
C2389       C  0.72627370  0.91203318  0.75259950     0.32700
C2390       C  0.71985907  0.90133897  0.72042984     0.14400
F2391       F  0.74666778  0.86239803  0.73600957    -0.12900
F2392       F  0.71920406  0.92808445  0.75774121    -0.13400
F2393       F  0.75904395  0.88293515  0.79895702    -0.15700
F2394       F  0.70685329  0.90730895  0.69533896    -0.14300
F2395       F  0.71088513  0.85127745  0.72549882    -0.14300
F2396       F  0.71885440  0.87615780  0.56293509    -0.15700
C2397       C  0.69248855  0.73295059  0.62707276     0.14400
C2398       C  0.68831391  0.74736765  0.65248303     0.01300
C2399       C  0.68442829  0.74477050  0.69539167     0.16300
C2400       C  0.68587138  0.72813893  0.71328098     0.25700
C2401       C  0.69108594  0.71381035  0.68839286    -0.40600
C2402       C  0.69352682  0.71625293  0.64471563     0.32800
C2403       C  0.68965954  0.76516436  0.63479372     0.01400
F2404       F  0.68010480  0.75848187  0.72036448    -0.12900
F2405       F  0.69791711  0.70270654  0.61946844    -0.13400
C2406       C  0.67482158  0.77442857  0.62197784     0.16300
C2407       C  0.67655560  0.79035209  0.60048094     0.25700
C2408       C  0.69314614  0.79711243  0.59173406    -0.40600
C2409       C  0.70786992  0.78840784  0.60736302     0.32700
C2410       C  0.70614351  0.77252689  0.62845235     0.14400
F2411       F  0.65875811  0.76766193  0.62859305    -0.12900
F2412       F  0.72400048  0.79512538  0.60120253    -0.13400
F2413       F  0.66214859  0.79860050  0.58600969    -0.15700
F2414       F  0.72062216  0.76404748  0.64170592    -0.14300
F2415       F  0.69626540  0.73519700  0.58543279    -0.14300
F2416       F  0.68258475  0.72608367  0.75522125    -0.15700
loop_ 
_geom_bond_atom_site_label_1 
_geom_bond_atom_site_label_2 
_geom_bond_distance 
_geom_bond_site_symmetry_2 
_ccdc_geom_bond_type 
C1            C2   1.532       .  S
C1            C7   1.541       .  S
C1            C5   1.539       .  S
C1         C2348   1.535       .  S
C2            H9   1.086       .  S
C2            C3   1.366       .  D
C3            C4   1.543       .  S
C3         C2361   1.487       .  S
C4            C8   1.538       .  S
C4            C6   1.542       .  S
C4           H10   1.110       .  S
C5           H11   1.086       .  S
C5            C6   1.367       .  D
C6         C2381   1.487       .  S
C7           H12   1.080       .  S
C7            C8   1.365       .  D
C8         C2408   1.483       .  S
C13          C14   1.545       .  S
C13          C19   1.537       .  S
C13          C17   1.531       .  S
C13        C2288   1.535       .  S
C14          H21   1.077       .  S
C14          C15   1.368       .  D
C15          C16   1.545       .  S
C15        C2308   1.490       .  S
C16          C20   1.547       .  S
C16          C18   1.543       .  S
C16          H22   1.110       .  S
C17          H23   1.087       .  S
C17          C18   1.358       .  D
C18        C2328   1.478       .  S
C19          H24   1.086       .  S
C19          C20   1.366       .  D
C20        C2401   1.490       .  S
O25          C28   1.266       .  A
O25         Cd30   2.456       .  S
C26          O35   1.266       .  A
C26          O31   1.263       .  A
C26        C2221   1.488       .  S
O27          C33   1.265       .  A
O27         Cd30   2.463       .  S
C28          O36   1.265       .  A
C28        C2388   1.482       .  S
C29          O34   1.263       .  A
C29          O32   1.266       .  A
C29        C2241   1.488       .  S
Cd30         O37   2.449       .  S
Cd30         O36   2.458       .  S
Cd30         O35   2.506       .  S
Cd30         O31   2.443       .  S
Cd30         O34   2.463       .  S
Cd30         O32   2.495       .  S
C33          O37   1.264       .  A
C33        C2261   1.482       .  S
C38          C39   1.548       .  S
C38          C44   1.536       .  S
C38          C42   1.536       .  S
C38        C2341   1.537       .  S
C39          H46   1.076       .  S
C39          C40   1.368       .  D
C40          C41   1.536       .  S
C40        C2181   1.482       .  S
C41          C45   1.540       .  S
C41          C43   1.533       .  S
C41          H47   1.110       .  S
C42          H48   1.087       .  S
C42          C43   1.362       .  D
C43        C2268   1.477       .  S
C44          H49   1.086       .  S
C44          C45   1.365       .  D
C45        C2201   1.485       .  S
C50          C51   1.542       .  S
C50          C56   1.534   1_556  S
C50          C54   1.542   1_556  S
C50        C2281   1.537       .  S
C51          H58   1.075       .  S
C51          C52   1.365   1_556  D
C52          C53   1.536       .  S
C52        C2141   1.478       .  S
C53          C57   1.540       .  S
C53          C55   1.535       .  S
C53          H59   1.111       .  S
C54          H60   1.086       .  S
C54          C55   1.366       .  D
C55        C2161   1.483       .  S
C56          H61   1.086   1_554  S
C56          C57   1.364       .  D
C57        C2208   1.483       .  S
O62          C65   1.266       .  A
O62         Cd67   2.522       .  S
C63          O72   1.267       .  A
C63          O68   1.266       .  A
C63        C2321   1.487       .  S
O64          C70   1.263       .  A
O64         Cd67   2.462       .  S
C65          O73   1.262       .  A
C65        C2101   1.495       .  S
C66          O71   1.263       .  A
C66          O69   1.266       .  A
C66        C2168   1.488       .  S
Cd67         O74   2.501       .  S
Cd67         O73   2.482       .  S
Cd67         O72   2.485       .  S
Cd67         O68   2.459       .  S
Cd67         O71   2.450       .  S
Cd67         O69   2.499       .  S
C70          O74   1.268       .  A
C70        C2121   1.490       .  S
C75          C76   1.544       .  S
C75          C81   1.530       .  S
C75          C79   1.543       .  S
C75        C2081   1.536       .  S
C76          H83   1.086       .  S
C76          C77   1.369       .  D
C77          C78   1.544       .  S
C77        C2061   1.495       .  S
C78          C82   1.537       .  S
C78          C80   1.541       .  S
C78          H84   1.110       .  S
C79          H85   1.081       .  S
C79          C80   1.368       .  D
C80        C2041   1.482       .  S
C81          H86   1.087       .  S
C81          C82   1.357       .  D
C82        C2248   1.473       .  S
C87          C88   1.546       .  S
C87          C93   1.535       .  S
C87          C91   1.542       .  S
C87        C2188   1.541       .  S
C88          H95   1.078       .  S
C88          C89   1.367       .  D
C89          C90   1.540       .  S
C89        C2001   1.484       .  S
C90          C94   1.541       .  S
C90          C92   1.539       .  S
C90          H96   1.111       .  S
C91          H97   1.086       .  S
C91          C92   1.365       .  D
C92        C1981   1.483       .  S
C93          H98   1.086       .  S
C93          C94   1.364       .  D
C94        C2021   1.487       .  S
C99         C100   1.535       .  S
C99         C105   1.538       .  S
C99         C103   1.542       .  S
C99        C1941   1.541       .  S
C100        H107   1.086       .  S
C100        C101   1.369       .  D
C101        C102   1.549       .  S
C101       C1908   1.499       .  S
C102        C106   1.548       .  S
C102        C104   1.542       .  S
C102        H108   1.109       .  S
C103        H109   1.083       .  S
C103        C104   1.363       .  D
C104       C1921   1.476       .  S
C105        H110   1.085       .  S
C105        C106   1.368       .  D
C106       C1968   1.499       .  S
C111        C112   1.539       .  S
C111        C117   1.536       .  S
C111        C115   1.539       .  S
C111       C1861   1.542       .  S
C112        H119   1.078       .  S
C112        C113   1.363       .  D
C113        C114   1.539       .  S
C113       C1841   1.482       .  S
C114        C118   1.545       .  S
C114        C116   1.547       .  S
C114        H120   1.110       .  S
C115        H121   1.086       .  S
C115        C116   1.371       .  D
C116       C1828   1.498       .  S
C117        H122   1.086       .  S
C117        C118   1.365       .  D
C118       C1888   1.489       .  S
C123       C1821   1.574       .  S
C123       C1901   1.573       .  S
C123       C2008   1.575   1_445  S
C123       C2048   1.573   1_455  S
C124       C1848   1.563   1_544  S
C124       C1928   1.567       .  S
C124       C1988   1.569   1_445  S
C124       C2068   1.574   1_454  S
C125        C126   1.536       .  S
C125        C131   1.549       .  S
C125        C129   1.537       .  S
C125       C1741   1.536       .  S
C126        H133   1.086       .  S
C126        C127   1.363       .  D
C127        C128   1.537       .  S
C127       C1801   1.478       .  S
C128        C132   1.536       .  S
C128        C130   1.534       .  S
C128        H134   1.111       .  S
C129        H135   1.086       .  S
C129        C130   1.362       .  D
C130       C1788   1.477       .  S
C131        H136   1.080       .  S
C131        C132   1.368       .  D
C132       C1761   1.480       .  S
C137        C138   1.538       .  S
C137        C143   1.549       .  S
C137        C141   1.531       .  S
C137       C1688   1.537       .  S
C138        H145   1.086       .  S
C138        C139   1.364       .  D
C139        C140   1.542       .  S
C139       C1808   1.486       .  S
C140        C144   1.540       .  S
C140        C142   1.541       .  S
C140        H146   1.110       .  S
C141        H147   1.087       .  S
C141        C142   1.362       .  D
C142       C1728   1.488       .  S
C143        H148   1.080       .  S
C143        C144   1.372       .  D
C144       C1701   1.489       .  S
C149        C150   1.537       .  S
C149        C155   1.546       .  S
C149        C153   1.537       .  S
C149       C1748   1.540       .  S
C150        H157   1.087       .  S
C150        C151   1.366       .  D
C151        C152   1.544       .  S
C151       C1661   1.489       .  S
C152        C156   1.536       .  S
C152        C154   1.539       .  S
C152        H158   1.111       .  S
C153        H159   1.087       .  S
C153        C154   1.365       .  D
C154       C1648   1.485       .  S
C155        H160   1.078       .  S
C155        C156   1.365       .  D
C156       C1868   1.480       .  S
C161        C162   1.533   1_554  S
C161        C167   1.548       .  S
C161        C165   1.535   1_554  S
C161       C1681   1.539       .  S
C162        H169   1.087   1_556  S
C162        C163   1.364       .  D
C163        C164   1.542       .  S
C163       C1668   1.490       .  S
C164        C168   1.538       .  S
C164        C166   1.538       .  S
C164        H170   1.109       .  S
C165        H171   1.087       .  S
C165        C166   1.363       .  D
C166       C1621   1.485       .  S
C167        H172   1.079       .  S
C167        C168   1.373   1_554  D
C168       C1608   1.484       .  S
O173        C176   1.266       .  A
O173       Cd178   2.474       .  S
C174        O183   1.267       .  A
C174        O179   1.263       .  A
C174       C1588   1.494       .  S
O175        C181   1.263       .  A
O175       Cd178   2.496       .  S
C176        O184   1.265       .  A
C176       C1781   1.486       .  S
C177        O182   1.266       .  A
C177        O180   1.264       .  A
C177       C1641   1.488       .  S
Cd178       O185   2.501       .  S
Cd178       O184   2.454       .  S
Cd178       O183   2.511       .  S
Cd178       O179   2.467       .  S
Cd178       O182   2.490       .  S
Cd178       O180   2.466       .  S
C181        O185   1.265       .  A
C181       C2028   1.493       .  S
O186        C189   1.267       .  A
O186       Cd191   2.487       .  S
C187        O196   1.265       .  A
C187        O192   1.264       .  A
C187       C1628   1.487       .  S
O188        C194   1.266       .  A
O188       Cd191   2.483       .  S
C189        O197   1.265       .  A
C189       C1568   1.493       .  S
C190        O195   1.263       .  A
C190        O193   1.264       .  A
C190       C1541   1.495       .  S
Cd191       O198   2.468       .  S
Cd191       O197   2.481       .  S
Cd191       O196   2.485       .  S
Cd191       O192   2.478       .  S
Cd191       O195   2.499       .  S
Cd191       O193   2.504       .  S
C194        O198   1.266       .  A
C194       C1721   1.489       .  S
C199        C200   1.545       .  S
C199        C205   1.534       .  S
C199        C203   1.544       .  S
C199       C2368   1.541       .  S
C200        H207   1.078       .  S
C200        C201   1.367       .  D
C201        C202   1.541       .  S
C201       C1521   1.486       .  S
C202        C206   1.540       .  S
C202        C204   1.538       .  S
C202        H208   1.111       .  S
C203        H209   1.087       .  S
C203        C204   1.367       .  D
C204       C1501   1.484       .  S
C205        H210   1.087       .  S
C205        C206   1.363       .  D
C206       C1561   1.483       .  S
C211        C212   1.536   1_554  S
C211        C217   1.533   1_554  S
C211        C215   1.546       .  S
C211       C1601   1.542   1_554  S
C212        H219   1.087       .  S
C212        C213   1.366       .  D
C213        C214   1.539   1_556  S
C213       C1468   1.476       .  S
C214        C218   1.539   1_554  S
C214        C216   1.554       .  S
C214        H220   1.108       .  S
C215        H221   1.075       .  S
C215        C216   1.373       .  D
C216       C1448   1.511       .  S
C217        H222   1.087       .  S
C217        C218   1.359       .  D
C218       C1481   1.483       .  S
C223       C1401   1.576       .  S
C223       C1428   1.569       .  S
C223       C1441   1.577   1_545  S
C223       C1528   1.570   1_545  S
C224        C225   1.540   1_554  S
C224        C230   1.532       .  S
C224        C228   1.541       .  S
C224       C1388   1.541       .  S
C225        H232   1.086       .  S
C225        C226   1.368       .  D
C226        C227   1.542   1_556  S
C226       C1361   1.487       .  S
C227        C231   1.541   1_554  S
C227        C229   1.547       .  S
C227        H233   1.110       .  S
C228        H234   1.075       .  S
C228        C229   1.369       .  D
C229       C1421   1.494       .  S
C230        H235   1.087       .  S
C230        C231   1.361   1_554  D
C231       C2228   1.483       .  S
C236       C1341   1.569   1_565  S
C236       C1368   1.572   1_565  S
C236       C1461   1.567       .  S
C236       C1508   1.571       .  S
C237        C238   1.551       .  S
C237        C243   1.534       .  S
C237        C241   1.543       .  S
C237       C1301   1.547       .  S
C238        H245   1.077       .  S
C238        C239   1.372       .  D
C239        C240   1.546       .  S
C239       C1408   1.496       .  S
C240        C244   1.542       .  S
C240        C242   1.537       .  S
C240        H246   1.111       .  S
C241        H247   1.087       .  S
C241        C242   1.366       .  D
C242       C1348   1.483       .  S
C243        H248   1.087       .  S
C243        C244   1.359       .  D
C244       C1328   1.482       .  S
C249        C250   1.541       .  S
C249        C255   1.532       .  S
C249        C253   1.540       .  S
C249       C1768   1.540       .  S
C250        H257   1.083       .  S
C250        C251   1.374       .  D
C251        C252   1.554       .  S
C251       C1241   1.514       .  S
C252        C256   1.539       .  S
C252        C254   1.548       .  S
C252        H258   1.103       .  S
C253        H259   1.103       .  S
C253        C254   1.364       .  D
C254       C1261   1.489       .  S
C255        H260   1.086       .  S
C255        C256   1.361       .  D
C256       C1281   1.489       .  S
C261        C262   1.546       .  S
C261        C267   1.534       .  S
C261        C265   1.528       .  S
C261       C1228   1.536       .  S
C262        H269   1.078       .  S
C262        C263   1.368       .  D
C263        C264   1.540       .  S
C263       C1181   1.488       .  S
C264        C268   1.544       .  S
C264        C266   1.549       .  S
C264        H270   1.110       .  S
C265        H271   1.086       .  S
C265        C266   1.366       .  D
C266       C1201   1.492       .  S
C267        H272   1.087       .  S
C267        C268   1.363       .  D
C268       C2128   1.485       .  S
C273        C274   1.539   1_554  S
C273        C279   1.523       .  S
C273        C277   1.542       .  S
C273       C2148   1.530       .  S
C274        H281   1.085       .  S
C274        C275   1.368       .  D
C275        C276   1.549   1_556  S
C275       C1148   1.493       .  S
C276        C280   1.547       .  S
C276        C278   1.541       .  S
C276        H282   1.109       .  S
C277        H283   1.081       .  S
C277        C278   1.368       .  D
C278       C1161   1.489       .  S
C279        H284   1.088       .  S
C279        C280   1.358       .  D
C280       C1581   1.480       .  S
C285        C286   1.549       .  S
C285        C291   1.530       .  S
C285        C289   1.538   1_556  S
C285       C1108   1.543       .  S
C286        H293   1.081       .  S
C286        C287   1.373       .  D
C287        C288   1.548       .  S
C287       C1061   1.499       .  S
C288        C292   1.548       .  S
C288        C290   1.538   1_556  S
C288        H294   1.111       .  S
C289        H295   1.086       .  S
C289        C290   1.362       .  D
C290       C1081   1.474       .  S
C291        H296   1.087       .  S
C291        C292   1.365       .  D
C292       C1121   1.494   1_556  S
C297       C1068   1.581       .  S
C297       C1141   1.569       .  S
C297       C1208   1.573   1_455  S
C297       C1268   1.575       .  S
C298       C1088   1.563       .  S
C298       C1168   1.565       .  S
C298       C1188   1.564   1_455  S
C298       C1248   1.570       .  S
C299        C300   1.539       .  S
C299        C305   1.542       .  S
C299        C303   1.544       .  S
C299       C1001   1.544       .  S
C300        H307   1.086       .  S
C300        C301   1.369       .  D
C301        C302   1.541       .  S
C301       C1041   1.492       .  S
C302        C306   1.535       .  S
C302        C304   1.537       .  S
C302        H308   1.110       .  S
C303        H309   1.086       .  S
C303        C304   1.368       .  D
C304       C1028   1.486       .  S
C305        H310   1.078       .  S
C305        C306   1.362       .  D
C306       C2088   1.479       .  S
C311        C312   1.533       .  S
C311        C317   1.549       .  S
C311        C315   1.541   1_554  S
C311        C968   1.536       .  S
C312        H319   1.087       .  S
C312        C313   1.363   1_554  D
C313        C314   1.539       .  S
C313       C1048   1.486       .  S
C314        C318   1.535   1_556  S
C314        C316   1.536       .  S
C314        H320   1.110       .  S
C315        H321   1.086       .  S
C315        C316   1.364       .  D
C316        C981   1.482       .  S
C317        H322   1.079       .  S
C317        C318   1.369       .  D
C318       C1381   1.480       .  S
O323        C326   1.263       .  A
O323       Cd328   2.462       .  S
C324        O333   1.263       .  A
C324        O329   1.265       .  A
C324        C941   1.484       .  S
O325        C331   1.265       .  A
O325       Cd328   2.473       .  S
C326        O334   1.265       .  A
C326        C921   1.479       .  S
C327        O332   1.266       .  A
C327        O330   1.266       .  A
C327       C1321   1.489       .  S
Cd328       O335   2.444       .  S
Cd328       O334   2.468       .  S
Cd328       O333   2.460       .  S
Cd328       O329   2.480       .  S
Cd328       O332   2.466       .  S
Cd328       O330   2.471       .  S
C331        O335   1.264       .  A
C331        C988   1.483       .  S
C336        C337   1.537       .  S
C336        C342   1.548       .  S
C336        C340   1.540       .  S
C336       C1008   1.543       .  S
C337        H344   1.087       .  S
C337        C338   1.360       .  D
C338        C339   1.538       .  S
C338        C901   1.475       .  S
C339        C343   1.540       .  S
C339        C341   1.537       .  S
C339        H345   1.111       .  S
C340        H346   1.086       .  S
C340        C341   1.366       .  D
C341        C881   1.485       .  S
C342        H347   1.078       .  S
C342        C343   1.369       .  D
C343       C1221   1.484       .  S
C348        C349   1.545       .  S
C348        C354   1.535       .  S
C348        C352   1.540       .  S
C348        C961   1.534       .  S
C349        H356   1.082       .  S
C349        C350   1.366       .  D
C350        C351   1.533       .  S
C350        C908   1.477       .  S
C351        C355   1.536       .  S
C351        C353   1.537       .  S
C351        H357   1.111       .  S
C352        H358   1.086       .  S
C352        C353   1.363       .  D
C353        C948   1.480       .  S
C354        H359   1.086       .  S
C354        C355   1.365       .  D
C355        C868   1.479       .  S
O360        C363   1.266       .  A
O360       Cd365   2.490       .  S
C361        O370   1.266       .  A
C361        O366   1.264       .  A
C361       C1961   1.496       .  S
O362        C368   1.265       .  A
O362       Cd365   2.491       .  S
C363        O371   1.264       .  A
C363       C1021   1.493       .  S
C364        O369   1.266       .  A
C364        O367   1.266       .  A
C364        C888   1.485       .  S
Cd365       O372   2.520       .  S
Cd365       O371   2.492       .  S
Cd365       O370   2.500       .  S
Cd365       O366   2.504       .  S
Cd365       O369   2.476       .  S
Cd365       O367   2.464       .  S
C368        O372   1.265       .  A
C368       C1128   1.495       .  S
C373        C374   1.546       .  S
C373        C379   1.533       .  S
C373        C377   1.542       .  S
C373        C861   1.543       .  S
C374        H381   1.086       .  S
C374        C375   1.371       .  D
C375        C376   1.541       .  S
C375        C821   1.492       .  S
C376        C380   1.539       .  S
C376        C378   1.544       .  S
C376        H382   1.110       .  S
C377        H383   1.076       .  S
C377        C378   1.365       .  D
C378        C841   1.489       .  S
C379        H384   1.087       .  S
C379        C380   1.360       .  D
C380       C2108   1.478       .  S
C385        C386   1.544       .  S
C385        C391   1.529       .  S
C385        C389   1.540       .  S
C385       C2301   1.539       .  S
C386        H393   1.078       .  S
C386        C387   1.369       .  D
C387        C388   1.547       .  S
C387        C808   1.495       .  S
C388        C392   1.547       .  S
C388        C390   1.543       .  S
C388        H394   1.109       .  S
C389        H395   1.086       .  S
C389        C390   1.368       .  D
C390        C788   1.492       .  S
C391        H396   1.088       .  S
C391        C392   1.358       .  D
C392       C1548   1.481       .  S
C397        C398   1.547       .  S
C397        C403   1.529       .  S
C397        C401   1.543       .  S
C397       C1708   1.541       .  S
C398        H405   1.085       .  S
C398        C399   1.368       .  D
C399        C400   1.536       .  S
C399        C748   1.481       .  S
C400        C404   1.542       .  S
C400        C402   1.542       .  S
C400        H406   1.111       .  S
C401        H407   1.083       .  S
C401        C402   1.368       .  D
C402        C728   1.489       .  S
C403        H408   1.087       .  S
C403        C404   1.365       .  D
C404        C761   1.486       .  S
C409        C410   1.541       .  S
C409        C415   1.530       .  S
C409        C413   1.542       .  S
C409        C701   1.536       .  S
C410        H417   1.081       .  S
C410        C411   1.364       .  D
C411        C412   1.545       .  S
C411        C661   1.478       .  S
C412        C416   1.537       .  S
C412        C414   1.542       .  S
C412        H418   1.108       .  S
C413        H419   1.085       .  S
C413        C414   1.371       .  D
C414        C688   1.496       .  S
C415        H420   1.087       .  S
C415        C416   1.362       .  D
C416        C928   1.479       .  S
C421        C668   1.568   1_554  S
C421        C721   1.566       .  S
C421        C801   1.570   1_554  S
C421        C848   1.569       .  S
C422        C681   1.563       .  S
C422        C741   1.565       .  S
C422        C781   1.568       .  S
C422        C828   1.571       .  S
C423        C424   1.544       .  S
C423        C429   1.532       .  S
C423        C427   1.538       .  S
C423        C608   1.540       .  S
C424        H431   1.078       .  S
C424        C425   1.369       .  D
C425        C426   1.547       .  S
C425       C1308   1.492       .  S
C426        C430   1.547       .  S
C426        C428   1.540       .  S
C426        H432   1.110       .  S
C427        H433   1.086       .  S
C427        C428   1.364       .  D
C428        C621   1.482       .  S
C429        H434   1.087       .  S
C429        C430   1.365       .  D
C430        C641   1.494       .  S
C435        C436   1.541       .  S
C435        C441   1.549       .  S
C435        C439   1.537       .  S
C435        C561   1.543       .  S
C436        H443   1.086       .  S
C436        C437   1.368       .  D
C437        C438   1.540       .  S
C437        C708   1.484       .  S
C438        C442   1.540       .  S
C438        C440   1.536       .  S
C438        H444   1.111       .  S
C439        H445   1.087       .  S
C439        C440   1.363       .  D
C440        C581   1.483       .  S
C441        H446   1.076       .  S
C441        C442   1.366       .  D
C442        C648   1.491       .  S
O447        C450   1.267       .  A
O447       Cd452   2.478       .  S
C448        O457   1.266       .  A
C448        O453   1.265       .  A
C448        C628   1.483       .  S
O449        C455   1.264       .  A
O449       Cd452   2.485       .  S
C450        O458   1.265       .  A
C450       C1488   1.488       .  S
C451        O456   1.264       .  A
C451        O454   1.265       .  A
C451        C541   1.485       .  S
Cd452       O459   2.472       .  S
Cd452       O458   2.470       .  S
Cd452       O457   2.463       .  S
Cd452       O453   2.449       .  S
Cd452       O456   2.468       .  S
Cd452       O454   2.467       .  S
C455        O459   1.264       .  A
C455       C1881   1.488       .  S
C460        C461   1.541       .  S
C460        C466   1.538       .  S
C460        C464   1.539       .  S
C460        C601   1.541       .  S
C461        H468   1.083       .  S
C461        C462   1.377       .  D
C462        C463   1.547       .  S
C462       C1948   1.511       .  S
C463        C467   1.538       .  S
C463        C465   1.538       .  S
C463        H469   1.104       .  S
C464        H470   1.086       .  S
C464        C465   1.363       .  D
C465        C548   1.471       .  S
C466        H471   1.079       .  S
C466        C467   1.361       .  D
C467        C528   1.491       .  S
C472        C473   1.549   1_554  S
C472        C478   1.538       .  S
C472        C476   1.534       .  S
C472        C568   1.539   1_554  S
C473        H480   1.079       .  S
C473        C474   1.370   1_556  D
C474        C475   1.538       .  S
C474       C1101   1.488       .  S
C475        C479   1.538       .  S
C475        C477   1.538       .  S
C475        H481   1.111       .  S
C476        H482   1.087       .  S
C476        C477   1.364       .  D
C477        C501   1.482       .  S
C478        H483   1.086       .  S
C478        C479   1.361       .  D
C479        C521   1.474       .  S
O484        C487   1.265       .  A
O484       Cd489   2.490       .  S
C485        O494   1.265       .  A
C485        O490   1.266       .  A
C485        C508   1.485       .  S
O486        C492   1.264       .  A
O486       Cd489   2.492       .  S
C487        O495   1.267       .  A
C487       C1288   1.490       .  S
C488        O493   1.265       .  A
C488        O491   1.264       .  A
C488        C588   1.487       .  S
Cd489       O496   2.491       .  S
Cd489       O495   2.471       .  S
Cd489       O494   2.453       .  S
Cd489       O490   2.475       .  S
Cd489       O493   2.478       .  S
Cd489       O491   2.462       .  S
C492        O496   1.263       .  A
C492        C768   1.491       .  S
C497        C498   1.407       .  A
C497        C502   1.401       .  A
C497        F515   1.358       .  S
C498        C503   1.480       .  S
C498        C499   1.404       .  A
C499        C500   1.395       .  A
C499        F504   1.358       .  S
C500        C501   1.408       .  A
C500        F516   1.358       .  S
C501        C502   1.406       .  A
C502        F505   1.357       .  S
C503        C506   1.403       .  A
C503        C510   1.405       .  A
C506        C507   1.397       .  A
C506        F511   1.358       .  S
C507        C508   1.410       .  A
C507        F513   1.358       .  S
C508        C509   1.411       .  A
C509        C510   1.400       .  A
C509        F512   1.358       .  S
C510        F514   1.358       .  S
C517        C518   1.406       .  A
C517        C522   1.401       .  A
C517        F535   1.357       .  S
C518        C523   1.481       .  S
C518        C519   1.407       .  A
C519        C520   1.397       .  A
C519        F524   1.358       .  S
C520        C521   1.402       .  A
C520        F536   1.358       .  S
C521        C522   1.403       .  A
C522        F525   1.356       .  S
C523        C526   1.406       .  A
C523        C530   1.403       .  A
C526        C527   1.402       .  A
C526        F531   1.358       .  S
C527        C528   1.409       .  A
C527        F533   1.356       .  S
C528        C529   1.410       .  A
C529        C530   1.396       .  A
C529        F532   1.358       .  S
C530        F534   1.358       .  S
C537        C538   1.404       .  A
C537        C542   1.399   1_554  A
C537        F555   1.358       .  S
C538        C543   1.481       .  S
C538        C539   1.404       .  A
C539        C540   1.398       .  A
C539        F544   1.358       .  S
C540        C541   1.410   1_554  A
C540        F556   1.358       .  S
C541        C542   1.411       .  A
C542        F545   1.358       .  S
C543        C546   1.407       .  A
C543        C550   1.407       .  A
C546        C547   1.398       .  A
C546        F551   1.358       .  S
C547        C548   1.403       .  A
C547        F553   1.358       .  S
C548        C549   1.401       .  A
C549        C550   1.398       .  A
C549        F552   1.357       .  S
C550        F554   1.358       .  S
C557        C558   1.398       .  A
C557        C562   1.398       .  A
C557        F575   1.358       .  S
C558        C563   1.478       .  S
C558        C559   1.399       .  A
C559        C560   1.400       .  A
C559        F564   1.358       .  S
C560        C561   1.420       .  A
C560        F576   1.358       .  S
C561        C562   1.421       .  A
C562        F565   1.351       .  S
C563        C566   1.398       .  A
C563        C570   1.400       .  A
C566        C567   1.397       .  A
C566        F571   1.358       .  S
C567        C568   1.419       .  A
C567        F573   1.359   1_556  S
C568        C569   1.419       .  A
C569        C570   1.401       .  A
C569        F572   1.352       .  S
C570        F574   1.358       .  S
C577        C578   1.406       .  A
C577        C582   1.398       .  A
C577        F595   1.358       .  S
C578        C583   1.484       .  S
C578        C579   1.406       .  A
C579        C580   1.401       .  A
C579        F584   1.358       .  S
C580        C581   1.406       .  A
C580        F596   1.357       .  S
C581        C582   1.406       .  A
C582        F585   1.358       .  S
C583        C586   1.405       .  A
C583        C590   1.404       .  A
C586        C587   1.401       .  A
C586        F591   1.358       .  S
C587        C588   1.411       .  A
C587        F593   1.358       .  S
C588        C589   1.411       .  A
C589        C590   1.399       .  A
C589        F592   1.358       .  S
C590        F594   1.358       .  S
C597        C598   1.399       .  A
C597        C602   1.398       .  A
C597        F615   1.359       .  S
C598        C603   1.480       .  S
C598        C599   1.401       .  A
C599        C600   1.400       .  A
C599        F604   1.358       .  S
C600        C601   1.415       .  A
C600        F616   1.358       .  S
C601        C602   1.422       .  A
C602        F605   1.354       .  S
C603        C606   1.400       .  A
C603        C610   1.401       .  A
C606        C607   1.397       .  A
C606        F611   1.358       .  S
C607        C608   1.418       .  A
C607        F613   1.359       .  S
C608        C609   1.418       .  A
C609        C610   1.401       .  A
C609        F612   1.352       .  S
C610        F614   1.358       .  S
C617        C618   1.408       .  A
C617        C622   1.401       .  A
C617        F635   1.358       .  S
C618        C623   1.484       .  S
C618        C619   1.406       .  A
C619        C620   1.396       .  A
C619        F624   1.358       .  S
C620        C621   1.407       .  A
C620        F636   1.358       .  S
C621        C622   1.405       .  A
C622        F625   1.357       .  S
C623        C626   1.406       .  A
C623        C630   1.405       .  A
C626        C627   1.399       .  A
C626        F631   1.358       .  S
C627        C628   1.410       .  A
C627        F633   1.358       .  S
C628        C629   1.410       .  A
C629        C630   1.397       .  A
C629        F632   1.358       .  S
C630        F634   1.358       .  S
C637        C638   1.409       .  A
C637        C642   1.410       .  A
C637        F655   1.357       .  S
C638        C643   1.490       .  S
C638        C639   1.404       .  A
C639        C640   1.398       .  A
C639        F644   1.358       .  S
C640        C641   1.409       .  A
C640        F656   1.358       .  S
C641        C642   1.408       .  A
C642        F645   1.357       .  S
C643        C646   1.408       .  A
C643        C650   1.406       .  A
C646        C647   1.403       .  A
C646        F651   1.358       .  S
C647        C648   1.406       .  A
C647        F653   1.358       .  S
C648        C649   1.409       .  A
C649        C650   1.404       .  A
C649        F652   1.358       .  S
C650        F654   1.357       .  S
C657        C658   1.411       .  A
C657        C662   1.404       .  A
C657        F675   1.357       .  S
C658        C663   1.494       .  S
C658        C659   1.411       .  A
C659        C660   1.395       .  A
C659        F664   1.358       .  S
C660        C661   1.400       .  A
C660        F676   1.356       .  S
C661        C662   1.404       .  A
C662        F665   1.358       .  S
C663        C666   1.407       .  A
C663        C670   1.403       .  A
C666        C667   1.404       .  A
C666        F671   1.357       .  S
C667        C668   1.422       .  A
C667        F673   1.355   1_556  S
C668        C669   1.421       .  A
C669        C670   1.393       .  A
C669        F672   1.355       .  S
C670        F674   1.358       .  S
C677        C678   1.395       .  A
C677        C682   1.393       .  A
C677        F695   1.359       .  S
C678        C683   1.475       .  S
C678        C679   1.400       .  A
C679        C680   1.403       .  A
C679        F684   1.357       .  S
C680        C681   1.423       .  A
C680        F696   1.354       .  S
C681        C682   1.424       .  A
C682        F685   1.356       .  S
C683        C686   1.399       .  A
C683        C690   1.402       .  A
C686        C687   1.398       .  A
C686        F691   1.358       .  S
C687        C688   1.413       .  A
C687        F693   1.357       .  S
C688        C689   1.412       .  A
C689        C690   1.399       .  A
C689        F692   1.355       .  S
C690        F694   1.358       .  S
C697        C698   1.402       .  A
C697        C702   1.398       .  A
C697        F715   1.358       .  S
C698        C703   1.487       .  S
C698        C699   1.404       .  A
C699        C700   1.400       .  A
C699        F704   1.358       .  S
C700        C701   1.417       .  A
C700        F716   1.354       .  S
C701        C702   1.417       .  A
C702        F705   1.358       .  S
C703        C706   1.409       .  A
C703        C710   1.406       .  A
C706        C707   1.401       .  A
C706        F711   1.358       .  S
C707        C708   1.404       .  A
C707        F713   1.358       .  S
C708        C709   1.407       .  A
C709        C710   1.399       .  A
C709        F712   1.358       .  S
C710        F714   1.358       .  S
C717        C718   1.403       .  A
C717        C722   1.402       .  A
C717        F735   1.358       .  S
C718        C723   1.487       .  S
C718        C719   1.400       .  A
C719        C720   1.398       .  A
C719        F724   1.358       .  S
C720        C721   1.423       .  A
C720        F736   1.358       .  S
C721        C722   1.422       .  A
C722        F725   1.355   1_554  S
C723        C726   1.408       .  A
C723        C730   1.405       .  A
C726        C727   1.404       .  A
C726        F731   1.358       .  S
C727        C728   1.406       .  A
C727        F733   1.357       .  S
C728        C729   1.409       .  A
C729        C730   1.398       .  A
C729        F732   1.358       .  S
C730        F734   1.358       .  S
C737        C738   1.399       .  A
C737        C742   1.396       .  A
C737        F755   1.358       .  S
C738        C743   1.485       .  S
C738        C739   1.404       .  A
C739        C740   1.404       .  A
C739        F744   1.358       .  S
C740        C741   1.421       .  A
C740        F756   1.355       .  S
C741        C742   1.424       .  A
C742        F745   1.357       .  S
C743        C746   1.406       .  A
C743        C750   1.408       .  A
C746        C747   1.402       .  A
C746        F751   1.357       .  S
C747        C748   1.405       .  A
C747        F753   1.357       .  S
C748        C749   1.404       .  A
C749        C750   1.400       .  A
C749        F752   1.358       .  S
C750        F754   1.358       .  S
C757        C758   1.407       .  A
C757        C762   1.403       .  A
C757        F775   1.358       .  S
C758        C763   1.484       .  S
C758        C759   1.405       .  A
C759        C760   1.398       .  A
C759        F764   1.358       .  S
C760        C761   1.407       .  A
C760        F776   1.358       .  S
C761        C762   1.407       .  A
C762        F765   1.357       .  S
C763        C766   1.405       .  A
C763        C770   1.403       .  A
C766        C767   1.401       .  A
C766        F771   1.358       .  S
C767        C768   1.411       .  A
C767        F773   1.358       .  S
C768        C769   1.412       .  A
C769        C770   1.402       .  A
C769        F772   1.357       .  S
C770        F774   1.358       .  S
C777        C778   1.401       .  A
C777        C782   1.403       .  A
C777        F795   1.358       .  S
C778        C783   1.479       .  S
C778        C779   1.395       .  A
C779        C780   1.392       .  A
C779        F784   1.359       .  S
C780        C781   1.430       .  A
C780        F796   1.357       .  S
C781        C782   1.421       .  A
C782        F785   1.356       .  S
C783        C786   1.403       .  A
C783        C790   1.403       .  A
C786        C787   1.400       .  A
C786        F791   1.358       .  S
C787        C788   1.410       .  A
C787        F793   1.356       .  S
C788        C789   1.412       .  A
C789        C790   1.397       .  A
C789        F792   1.358       .  S
C790        F794   1.358       .  S
C797        C798   1.402       .  A
C797        C802   1.405       .  A
C797        F815   1.358       .  S
C798        C803   1.485       .  S
C798        C799   1.397       .  A
C799        C800   1.396       .  A
C799        F804   1.358       .  S
C800        C801   1.429       .  A
C800        F816   1.356       .  S
C801        C802   1.423       .  A
C802        F805   1.356   1_556  S
C803        C806   1.403       .  A
C803        C810   1.407       .  A
C806        C807   1.398       .  A
C806        F811   1.358       .  S
C807        C808   1.412       .  A
C807        F813   1.358       .  S
C808        C809   1.408       .  A
C809        C810   1.407       .  A
C809        F812   1.357       .  S
C810        F814   1.358       .  S
C817        C818   1.402       .  A
C817        C822   1.402       .  A
C817        F835   1.358       .  S
C818        C823   1.479       .  S
C818        C819   1.404       .  A
C819        C820   1.401       .  A
C819        F824   1.358       .  S
C820        C821   1.409       .  A
C820        F836   1.358       .  S
C821        C822   1.410       .  A
C822        F825   1.355       .  S
C823        C826   1.395       .  A
C823        C830   1.400       .  A
C826        C827   1.396       .  A
C826        F831   1.358       .  S
C827        C828   1.429       .  A
C827        F833   1.357       .  S
C828        C829   1.422       .  A
C829        C830   1.403       .  A
C829        F832   1.355       .  S
C830        F834   1.357       .  S
C837        C838   1.400       .  A
C837        C842   1.395       .  A
C837        F855   1.359       .  S
C838        C843   1.475       .  S
C838        C839   1.404       .  A
C839        C840   1.403       .  A
C839        F844   1.357       .  S
C840        C841   1.407       .  A
C840        F856   1.357       .  S
C841        C842   1.412       .  A
C842        F845   1.358       .  S
C843        C846   1.394       .  A
C843        C850   1.399       .  A
C846        C847   1.395       .  A
C846        F851   1.359       .  S
C847        C848   1.429       .  A
C847        F853   1.356       .  S
C848        C849   1.422       .  A
C849        C850   1.402       .  A
C849        F852   1.356   1_554  S
C850        F854   1.358       .  S
C857        C858   1.401       .  A
C857        C862   1.398       .  A
C857        F875   1.359       .  S
C858        C863   1.486       .  S
C858        C859   1.402       .  A
C859        C860   1.400       .  A
C859        F864   1.358       .  S
C860        C861   1.417       .  A
C860        F876   1.358       .  S
C861        C862   1.421       .  A
C862        F865   1.352       .  S
C863        C866   1.408       .  A
C863        C870   1.407       .  A
C866        C867   1.402       .  A
C866        F871   1.358       .  S
C867        C868   1.405       .  A
C867        F873   1.358       .  S
C868        C869   1.404       .  A
C869        C870   1.397       .  A
C869        F872   1.358       .  S
C870        F874   1.358       .  S
C877        C878   1.410       .  A
C877        C882   1.400       .  A
C877        F895   1.358       .  S
C878        C883   1.494       .  S
C878        C879   1.410       .  A
C879        C880   1.401       .  A
C879        F884   1.358       .  S
C880        C881   1.404       .  A
C880        F896   1.355       .  S
C881        C882   1.405       .  A
C882        F885   1.358       .  S
C883        C886   1.409       .  A
C883        C890   1.409       .  A
C886        C887   1.400       .  A
C886        F891   1.358       .  S
C887        C888   1.408       .  A
C887        F893   1.358       .  S
C888        C889   1.408       .  A
C889        C890   1.401       .  A
C889        F892   1.358       .  S
C890        F894   1.358       .  S
C897        C898   1.402       .  A
C897        C902   1.395       .  A
C897        F915   1.358       .  S
C898        C903   1.473       .  S
C898        C899   1.404       .  A
C899        C900   1.403       .  A
C899        F904   1.358       .  S
C900        C901   1.405       .  A
C900        F916   1.356       .  S
C901        C902   1.403       .  A
C902        F905   1.358       .  S
C903        C906   1.404       .  A
C903        C910   1.403       .  A
C906        C907   1.399       .  A
C906        F911   1.358       .  S
C907        C908   1.405       .  A
C907        F913   1.358       .  S
C908        C909   1.405       .  A
C909        C910   1.399       .  A
C909        F912   1.358       .  S
C910        F914   1.357       .  S
C917        C918   1.401       .  A
C917        C922   1.399       .  A
C917        F935   1.358       .  S
C918        C923   1.472       .  S
C918        C919   1.403       .  A
C919        C920   1.397       .  A
C919        F924   1.358       .  S
C920        C921   1.408       .  A
C920        F936   1.358       .  S
C921        C922   1.410       .  A
C922        F925   1.358       .  S
C923        C926   1.403       .  A
C923        C930   1.402       .  A
C926        C927   1.400       .  A
C926        F931   1.358       .  S
C927        C928   1.407       .  A
C927        F933   1.357       .  S
C928        C929   1.406       .  A
C929        C930   1.396       .  A
C929        F932   1.358       .  S
C930        F934   1.358       .  S
C937        C938   1.404       .  A
C937        C942   1.399       .  A
C937        F955   1.358       .  S
C938        C943   1.480       .  S
C938        C939   1.404       .  A
C939        C940   1.398       .  A
C939        F944   1.358       .  S
C940        C941   1.409       .  A
C940        F956   1.358       .  S
C941        C942   1.411       .  A
C942        F945   1.358       .  S
C943        C946   1.405       .  A
C943        C950   1.406       .  A
C946        C947   1.397       .  A
C946        F951   1.358       .  S
C947        C948   1.408       .  A
C947        F953   1.358       .  S
C948        C949   1.405       .  A
C949        C950   1.398       .  A
C949        F952   1.358       .  S
C950        F954   1.358       .  S
C957        C958   1.400       .  A
C957        C962   1.396       .  A
C957        F975   1.358       .  S
C958        C963   1.478       .  S
C958        C959   1.402       .  A
C959        C960   1.399       .  A
C959        F964   1.358       .  S
C960        C961   1.417       .  A
C960        F976   1.354       .  S
C961        C962   1.416       .  A
C962        F965   1.358       .  S
C963        C966   1.398       .  A
C963        C970   1.402       .  A
C966        C967   1.395       .  A
C966        F971   1.358       .  S
C967        C968   1.418       .  A
C967        F973   1.359       .  S
C968        C969   1.417       .  A
C969        C970   1.400       .  A
C969        F972   1.352       .  S
C970        F974   1.358       .  S
C977        C978   1.406       .  A
C977        C982   1.397       .  A
C977        F995   1.358       .  S
C978        C983   1.480       .  S
C978        C979   1.404       .  A
C979        C980   1.398       .  A
C979        F984   1.358       .  S
C980        C981   1.409       .  A
C980        F996   1.358       .  S
C981        C982   1.405       .  A
C982        F985   1.357       .  S
C983        C986   1.405       .  A
C983        C990   1.403       .  A
C986        C987   1.401       .  A
C986        F991   1.358       .  S
C987        C988   1.412       .  A
C987        F993   1.358       .  S
C988        C989   1.409       .  A
C989        C990   1.394       .  A
C989        F992   1.358       .  S
C990        F994   1.358       .  S
C997        C998   1.405       .  A
C997       C1002   1.401       .  A
C997       F1015   1.358       .  S
C998       C1003   1.492       .  S
C998        C999   1.404       .  A
C999       C1000   1.400       .  A
C999       F1004   1.358       .  S
C1000      C1001   1.420       .  A
C1000      F1016   1.353       .  S
C1001      C1002   1.415       .  A
C1002      F1005   1.358       .  S
C1003      C1006   1.405       .  A
C1003      C1010   1.404       .  A
C1006      C1007   1.401       .  A
C1006      F1011   1.358       .  S
C1007      C1008   1.418       .  A
C1007      F1013   1.351       .  S
C1008      C1009   1.418       .  A
C1009      C1010   1.399       .  A
C1009      F1012   1.359       .  S
C1010      F1014   1.358       .  S
C1017      C1018   1.405   1_554  A
C1017      C1022   1.403       .  A
C1017      F1035   1.358       .  S
C1018      C1023   1.487       .  S
C1018      C1019   1.405       .  A
C1019      C1020   1.400       .  A
C1019      F1024   1.358       .  S
C1020      C1021   1.411   1_556  A
C1020      F1036   1.357       .  S
C1021      C1022   1.413       .  A
C1022      F1025   1.358       .  S
C1023      C1026   1.406       .  A
C1023      C1030   1.407       .  A
C1026      C1027   1.400       .  A
C1026      F1031   1.357       .  S
C1027      C1028   1.407       .  A
C1027      F1033   1.358       .  S
C1028      C1029   1.407       .  A
C1029      C1030   1.401       .  A
C1029      F1032   1.357       .  S
C1030      F1034   1.358       .  S
C1037      C1038   1.403       .  A
C1037      C1042   1.403       .  A
C1037      F1055   1.358       .  S
C1038      C1043   1.480       .  S
C1038      C1039   1.404       .  A
C1039      C1040   1.399       .  A
C1039      F1044   1.358       .  S
C1040      C1041   1.410       .  A
C1040      F1056   1.357       .  S
C1041      C1042   1.410       .  A
C1042      F1045   1.357       .  S
C1043      C1046   1.406       .  A
C1043      C1050   1.402       .  A
C1046      C1047   1.406       .  A
C1046      F1051   1.357       .  S
C1047      C1048   1.408       .  A
C1047      F1053   1.358       .  S
C1048      C1049   1.408       .  A
C1049      C1050   1.395       .  A
C1049      F1052   1.358       .  S
C1050      F1054   1.358       .  S
C1057      C1058   1.408       .  A
C1057      C1062   1.410       .  A
C1057      F1075   1.357   1_455  S
C1058      C1063   1.492       .  S
C1058      C1059   1.404       .  A
C1059      C1060   1.402       .  A
C1059      F1064   1.358       .  S
C1060      C1061   1.410       .  A
C1060      F1076   1.358       .  S
C1061      C1062   1.409       .  A
C1062      F1065   1.357       .  S
C1063      C1066   1.396       .  A
C1063      C1070   1.403       .  A
C1066      C1067   1.400       .  A
C1066      F1071   1.358       .  S
C1067      C1068   1.431       .  A
C1067      F1073   1.356   1_455  S
C1068      C1069   1.423       .  A
C1069      C1070   1.410       .  A
C1069      F1072   1.357       .  S
C1070      F1074   1.357       .  S
C1077      C1078   1.408       .  A
C1077      C1082   1.397       .  A
C1077      F1095   1.358       .  S
C1078      C1083   1.481       .  S
C1078      C1079   1.405       .  A
C1079      C1080   1.399       .  A
C1079      F1084   1.358       .  S
C1080      C1081   1.405       .  A
C1080      F1096   1.358       .  S
C1081      C1082   1.401       .  A
C1082      F1085   1.358       .  S
C1083      C1086   1.398       .  A
C1083      C1090   1.403       .  A
C1086      C1087   1.393   1_455  A
C1086      F1091   1.358   1_455  S
C1087      C1088   1.423   1_655  A
C1087      F1093   1.357       .  S
C1088      C1089   1.422       .  A
C1089      C1090   1.401       .  A
C1089      F1092   1.355       .  S
C1090      F1094   1.358       .  S
C1097      C1098   1.407       .  A
C1097      C1102   1.398       .  A
C1097      F1115   1.358   1_554  S
C1098      C1103   1.492       .  S
C1098      C1099   1.410       .  A
C1099      C1100   1.405       .  A
C1099      F1104   1.358       .  S
C1100      C1101   1.406       .  A
C1100      F1116   1.356       .  S
C1101      C1102   1.406       .  A
C1102      F1105   1.358   1_554  S
C1103      C1106   1.406   1_554  A
C1103      C1110   1.402       .  A
C1106      C1107   1.403       .  A
C1106      F1111   1.358       .  S
C1107      C1108   1.416       .  A
C1107      F1113   1.353       .  S
C1108      C1109   1.419   1_556  A
C1109      C1110   1.400       .  A
C1109      F1112   1.358       .  S
C1110      F1114   1.358       .  S
C1117      C1118   1.410       .  A
C1117      C1122   1.408       .  A
C1117      F1135   1.358       .  S
C1118      C1123   1.496       .  S
C1118      C1119   1.407   1_554  A
C1119      C1120   1.399   1_655  A
C1119      F1124   1.358       .  S
C1120      C1121   1.408   1_556  A
C1120      F1136   1.358       .  S
C1121      C1122   1.409   1_455  A
C1122      F1125   1.357   1_655  S
C1123      C1126   1.407       .  A
C1123      C1130   1.409       .  A
C1126      C1127   1.402       .  A
C1126      F1131   1.358   1_554  S
C1127      C1128   1.410       .  A
C1127      F1133   1.357       .  S
C1128      C1129   1.411       .  A
C1129      C1130   1.407       .  A
C1129      F1132   1.358       .  S
C1130      F1134   1.358       .  S
C1137      C1138   1.402   1_455  A
C1137      C1142   1.399       .  A
C1137      F1155   1.358       .  S
C1138      C1143   1.491       .  S
C1138      C1139   1.404       .  A
C1139      C1140   1.404       .  A
C1139      F1144   1.358       .  S
C1140      C1141   1.424   1_655  A
C1140      F1156   1.356       .  S
C1141      C1142   1.422       .  A
C1142      F1145   1.357       .  S
C1143      C1146   1.408       .  A
C1143      C1150   1.406       .  A
C1146      C1147   1.404       .  A
C1146      F1151   1.357   1_655  S
C1147      C1148   1.405       .  A
C1147      F1153   1.357   1_655  S
C1148      C1149   1.412       .  A
C1149      C1150   1.401       .  A
C1149      F1152   1.358       .  S
C1150      F1154   1.358       .  S
C1157      C1158   1.399       .  A
C1157      C1162   1.393       .  A
C1157      F1175   1.358       .  S
C1158      C1163   1.469       .  S
C1158      C1159   1.401   1_655  A
C1159      C1160   1.401   1_455  A
C1159      F1164   1.358       .  S
C1160      C1161   1.411       .  A
C1160      F1176   1.356   1_655  S
C1161      C1162   1.412       .  A
C1162      F1165   1.358       .  S
C1163      C1166   1.394   1_655  A
C1163      C1170   1.397       .  A
C1166      C1167   1.395       .  A
C1166      F1171   1.359       .  S
C1167      C1168   1.429       .  A
C1167      F1173   1.356       .  S
C1168      C1169   1.421   1_455  A
C1169      C1170   1.398       .  A
C1169      F1172   1.356       .  S
C1170      F1174   1.358       .  S
C1177      C1178   1.405       .  A
C1177      C1182   1.399       .  A
C1177      F1195   1.358       .  S
C1178      C1183   1.477       .  S
C1178      C1179   1.401       .  A
C1179      C1180   1.399       .  A
C1179      F1184   1.358       .  S
C1180      C1181   1.411       .  A
C1180      F1196   1.358       .  S
C1181      C1182   1.407       .  A
C1182      F1185   1.357       .  S
C1183      C1186   1.398       .  A
C1183      C1190   1.400       .  A
C1186      C1187   1.394       .  A
C1186      F1191   1.358       .  S
C1187      C1188   1.421       .  A
C1187      F1193   1.357   1_655  S
C1188      C1189   1.425       .  A
C1189      C1190   1.402       .  A
C1189      F1192   1.355       .  S
C1190      F1194   1.358       .  S
C1197      C1198   1.403       .  A
C1197      C1202   1.396       .  A
C1197      F1215   1.358       .  S
C1198      C1203   1.485       .  S
C1198      C1199   1.407       .  A
C1199      C1200   1.407       .  A
C1199      F1204   1.357       .  S
C1200      C1201   1.408       .  A
C1200      F1216   1.357       .  S
C1201      C1202   1.411       .  A
C1202      F1205   1.358       .  S
C1203      C1206   1.397       .  A
C1203      C1210   1.402       .  A
C1206      C1207   1.395       .  A
C1206      F1211   1.359       .  S
C1207      C1208   1.428       .  A
C1207      F1213   1.356   1_655  S
C1208      C1209   1.423       .  A
C1209      C1210   1.406       .  A
C1209      F1212   1.356       .  S
C1210      F1214   1.358       .  S
C1217      C1218   1.402       .  A
C1217      C1222   1.399       .  A
C1217      F1235   1.358       .  S
C1218      C1223   1.476       .  S
C1218      C1219   1.404       .  A
C1219      C1220   1.400       .  A
C1219      F1224   1.358       .  S
C1220      C1221   1.405       .  A
C1220      F1236   1.356       .  S
C1221      C1222   1.409       .  A
C1222      F1225   1.358       .  S
C1223      C1226   1.400       .  A
C1223      C1230   1.399       .  A
C1226      C1227   1.399       .  A
C1226      F1231   1.358       .  S
C1227      C1228   1.418       .  A
C1227      F1233   1.353       .  S
C1228      C1229   1.417       .  A
C1229      C1230   1.397       .  A
C1229      F1232   1.358       .  S
C1230      F1234   1.358       .  S
C1237      C1238   1.401       .  A
C1237      C1242   1.402       .  A
C1237      F1255   1.358       .  S
C1238      C1243   1.488       .  S
C1238      C1239   1.403       .  A
C1239      C1240   1.399       .  A
C1239      F1244   1.358       .  S
C1240      C1241   1.416       .  A
C1240      F1256   1.353       .  S
C1241      C1242   1.421       .  A
C1242      F1245   1.356       .  S
C1243      C1246   1.404       .  A
C1243      C1250   1.399       .  A
C1246      C1247   1.404       .  A
C1246      F1251   1.357       .  S
C1247      C1248   1.422       .  A
C1247      F1253   1.357       .  S
C1248      C1249   1.427       .  A
C1249      C1250   1.393       .  A
C1249      F1252   1.356       .  S
C1250      F1254   1.359       .  S
C1257      C1258   1.411       .  A
C1257      C1262   1.407       .  A
C1257      F1275   1.357       .  S
C1258      C1263   1.502       .  S
C1258      C1259   1.412       .  A
C1259      C1260   1.401       .  A
C1259      F1264   1.358       .  S
C1260      C1261   1.402       .  A
C1260      F1276   1.356       .  S
C1261      C1262   1.407       .  A
C1262      F1265   1.358       .  S
C1263      C1266   1.404       .  A
C1263      C1270   1.408       .  A
C1266      C1267   1.399       .  A
C1266      F1271   1.359       .  S
C1267      C1268   1.424       .  A
C1267      F1273   1.356       .  S
C1268      C1269   1.422       .  A
C1269      C1270   1.408       .  A
C1269      F1272   1.354       .  S
C1270      F1274   1.357       .  S
C1277      C1278   1.405       .  A
C1277      C1282   1.400       .  A
C1277      F1295   1.358       .  S
C1278      C1283   1.485       .  S
C1278      C1279   1.406       .  A
C1279      C1280   1.403       .  A
C1279      F1284   1.358       .  S
C1280      C1281   1.408       .  A
C1280      F1296   1.357       .  S
C1281      C1282   1.408       .  A
C1282      F1285   1.358       .  S
C1283      C1286   1.405       .  A
C1283      C1290   1.404       .  A
C1286      C1287   1.405       .  A
C1286      F1291   1.358       .  S
C1287      C1288   1.413       .  A
C1287      F1293   1.358       .  S
C1288      C1289   1.409       .  A
C1289      C1290   1.398       .  A
C1289      F1292   1.357       .  S
C1290      F1294   1.358       .  S
C1297      C1298   1.405       .  A
C1297      C1302   1.405       .  A
C1297      F1315   1.358       .  S
C1298      C1303   1.494       .  S
C1298      C1299   1.402       .  A
C1299      C1300   1.400       .  A
C1299      F1304   1.358       .  S
C1300      C1301   1.419       .  A
C1300      F1316   1.359       .  S
C1301      C1302   1.419       .  A
C1302      F1305   1.351       .  S
C1303      C1306   1.409       .  A
C1303      C1310   1.407       .  A
C1306      C1307   1.405       .  A
C1306      F1311   1.358       .  S
C1307      C1308   1.408       .  A
C1307      F1313   1.357       .  S
C1308      C1309   1.408       .  A
C1309      C1310   1.401       .  A
C1309      F1312   1.358       .  S
C1310      F1314   1.358       .  S
C1317      C1318   1.406       .  A
C1317      C1322   1.400       .  A
C1317      F1335   1.357       .  S
C1318      C1323   1.491       .  S
C1318      C1319   1.409       .  A
C1319      C1320   1.401       .  A
C1319      F1324   1.358       .  S
C1320      C1321   1.410       .  A
C1320      F1336   1.358       .  S
C1321      C1322   1.410       .  A
C1322      F1325   1.358       .  S
C1323      C1326   1.407       .  A
C1323      C1330   1.410       .  A
C1326      C1327   1.400       .  A
C1326      F1331   1.358       .  S
C1327      C1328   1.406       .  A
C1327      F1333   1.358       .  S
C1328      C1329   1.403       .  A
C1329      C1330   1.404       .  A
C1329      F1332   1.357       .  S
C1330      F1334   1.358       .  S
C1337      C1338   1.398       .  A
C1337      C1342   1.397       .  A
C1337      F1355   1.358       .  S
C1338      C1343   1.482       .  S
C1338      C1339   1.400       .  A
C1339      C1340   1.401       .  A
C1339      F1344   1.358       .  S
C1340      C1341   1.423       .  A
C1340      F1356   1.357       .  S
C1341      C1342   1.428       .  A
C1342      F1345   1.355       .  S
C1343      C1346   1.405       .  A
C1343      C1350   1.406       .  A
C1346      C1347   1.400       .  A
C1346      F1351   1.358       .  S
C1347      C1348   1.405       .  A
C1347      F1353   1.355       .  S
C1348      C1349   1.407       .  A
C1349      C1350   1.400       .  A
C1349      F1352   1.358       .  S
C1350      F1354   1.358       .  S
C1357      C1358   1.409       .  A
C1357      C1362   1.405       .  A
C1357      F1375   1.358   1_545  S
C1358      C1363   1.491       .  S
C1358      C1359   1.407       .  A
C1359      C1360   1.399       .  A
C1359      F1364   1.358       .  S
C1360      C1361   1.406       .  A
C1360      F1376   1.358       .  S
C1361      C1362   1.406       .  A
C1362      F1365   1.358       .  S
C1363      C1366   1.401   1_545  A
C1363      C1370   1.402       .  A
C1366      C1367   1.401       .  A
C1366      F1371   1.358       .  S
C1367      C1368   1.424   1_565  A
C1367      F1373   1.358       .  S
C1368      C1369   1.427       .  A
C1369      C1370   1.401       .  A
C1369      F1372   1.354       .  S
C1370      F1374   1.358       .  S
C1377      C1378   1.406       .  A
C1377      C1382   1.400       .  A
C1377      F1395   1.358       .  S
C1378      C1383   1.477       .  S
C1378      C1379   1.402   1_554  A
C1379      C1380   1.396       .  A
C1379      F1384   1.358       .  S
C1380      C1381   1.407   1_556  A
C1380      F1396   1.356       .  S
C1381      C1382   1.405       .  A
C1382      F1385   1.358       .  S
C1383      C1386   1.399       .  A
C1383      C1390   1.398   1_554  A
C1386      C1387   1.400       .  A
C1386      F1391   1.358       .  S
C1387      C1388   1.422       .  A
C1387      F1393   1.351       .  S
C1388      C1389   1.418   1_554  A
C1389      C1390   1.396       .  A
C1389      F1392   1.358       .  S
C1390      F1394   1.358       .  S
C1397      C1398   1.403       .  A
C1397      C1402   1.402       .  A
C1397      F1415   1.358       .  S
C1398      C1403   1.499       .  S
C1398      C1399   1.407       .  A
C1399      C1400   1.405       .  A
C1399      F1404   1.357       .  S
C1400      C1401   1.422       .  A
C1400      F1416   1.355       .  S
C1401      C1402   1.425       .  A
C1402      F1405   1.356       .  S
C1403      C1406   1.409       .  A
C1403      C1410   1.410       .  A
C1406      C1407   1.405       .  A
C1406      F1411   1.357       .  S
C1407      C1408   1.408       .  A
C1407      F1413   1.357       .  S
C1408      C1409   1.408       .  A
C1409      C1410   1.404       .  A
C1409      F1412   1.356       .  S
C1410      F1414   1.358       .  S
C1417      C1418   1.403       .  A
C1417      C1422   1.399       .  A
C1417      F1435   1.358       .  S
C1418      C1423   1.485       .  S
C1418      C1419   1.406       .  A
C1419      C1420   1.403       .  A
C1419      F1424   1.358       .  S
C1420      C1421   1.408       .  A
C1420      F1436   1.357       .  S
C1421      C1422   1.412       .  A
C1422      F1425   1.358       .  S
C1423      C1426   1.400       .  A
C1423      C1430   1.400       .  A
C1426      C1427   1.399       .  A
C1426      F1431   1.358       .  S
C1427      C1428   1.422       .  A
C1427      F1433   1.357       .  S
C1428      C1429   1.426   1_545  A
C1429      C1430   1.403   1_565  A
C1429      F1432   1.355       .  S
C1430      F1434   1.358   1_545  S
C1437      C1438   1.403       .  A
C1437      C1442   1.398       .  A
C1437      F1455   1.359       .  S
C1438      C1443   1.502       .  S
C1438      C1439   1.407       .  A
C1439      C1440   1.409       .  A
C1439      F1444   1.357       .  S
C1440      C1441   1.422       .  A
C1440      F1456   1.356       .  S
C1441      C1442   1.427       .  A
C1442      F1445   1.356       .  S
C1443      C1446   1.407       .  A
C1443      C1450   1.410       .  A
C1446      C1447   1.406       .  A
C1446      F1451   1.357       .  S
C1447      C1448   1.417       .  A
C1447      F1453   1.358       .  S
C1448      C1449   1.411       .  A
C1449      C1450   1.402       .  A
C1449      F1452   1.355       .  S
C1450      F1454   1.358   1_565  S
C1457      C1458   1.397   1_545  A
C1457      C1462   1.398       .  A
C1457      F1475   1.358       .  S
C1458      C1463   1.479       .  S
C1458      C1459   1.400       .  A
C1459      C1460   1.397       .  A
C1459      F1464   1.358       .  S
C1460      C1461   1.424       .  A
C1460      F1476   1.355       .  S
C1461      C1462   1.426   1_565  A
C1462      F1465   1.357       .  S
C1463      C1466   1.407       .  A
C1463      C1470   1.404       .  A
C1466      C1467   1.403       .  A
C1466      F1471   1.358   1_565  S
C1467      C1468   1.405       .  A
C1467      F1473   1.357       .  S
C1468      C1469   1.404       .  A
C1469      C1470   1.395       .  A
C1469      F1472   1.358       .  S
C1470      F1474   1.358       .  S
C1477      C1478   1.407       .  A
C1477      C1482   1.404   1_556  A
C1477      F1495   1.357   1_556  S
C1478      C1483   1.482       .  S
C1478      C1479   1.404       .  A
C1479      C1480   1.400   1_545  A
C1479      F1484   1.358       .  S
C1480      C1481   1.408       .  A
C1480      F1496   1.358       .  S
C1481      C1482   1.403   1_566  A
C1482      F1485   1.357       .  S
C1483      C1486   1.403       .  A
C1483      C1490   1.404       .  A
C1486      C1487   1.403       .  A
C1486      F1491   1.358       .  S
C1487      C1488   1.412       .  A
C1487      F1493   1.358       .  S
C1488      C1489   1.409       .  A
C1489      C1490   1.400       .  A
C1489      F1492   1.358       .  S
C1490      F1494   1.358   1_545  S
C1497      C1498   1.406       .  A
C1497      C1502   1.399       .  A
C1497      F1515   1.358       .  S
C1498      C1503   1.485       .  S
C1498      C1499   1.406       .  A
C1499      C1500   1.401       .  A
C1499      F1504   1.358       .  S
C1500      C1501   1.407       .  A
C1500      F1516   1.358       .  S
C1501      C1502   1.405       .  A
C1502      F1505   1.357       .  S
C1503      C1506   1.399       .  A
C1503      C1510   1.400       .  A
C1506      C1507   1.399       .  A
C1506      F1511   1.358       .  S
C1507      C1508   1.425       .  A
C1507      F1513   1.357       .  S
C1508      C1509   1.426       .  A
C1509      C1510   1.400       .  A
C1509      F1512   1.355       .  S
C1510      F1514   1.358       .  S
C1517      C1518   1.403       .  A
C1517      C1522   1.397       .  A
C1517      F1535   1.358       .  S
C1518      C1523   1.479       .  S
C1518      C1519   1.405       .  A
C1519      C1520   1.404       .  A
C1519      F1524   1.357       .  S
C1520      C1521   1.407       .  A
C1520      F1536   1.357       .  S
C1521      C1522   1.409       .  A
C1522      F1525   1.358       .  S
C1523      C1526   1.398       .  A
C1523      C1530   1.396       .  A
C1526      C1527   1.403       .  A
C1526      F1531   1.358       .  S
C1527      C1528   1.424       .  A
C1527      F1533   1.354       .  S
C1528      C1529   1.426       .  A
C1529      C1530   1.398       .  A
C1529      F1532   1.356       .  S
C1530      F1534   1.358       .  S
C1537      C1538   1.407       .  A
C1537      C1542   1.404       .  A
C1537      F1555   1.358       .  S
C1538      C1543   1.491       .  S
C1538      C1539   1.405       .  A
C1539      C1540   1.402       .  A
C1539      F1544   1.358       .  S
C1540      C1541   1.412       .  A
C1540      F1556   1.358       .  S
C1541      C1542   1.411       .  A
C1542      F1545   1.358       .  S
C1543      C1546   1.409       .  A
C1543      C1550   1.407       .  A
C1546      C1547   1.405       .  A
C1546      F1551   1.358       .  S
C1547      C1548   1.405       .  A
C1547      F1553   1.358       .  S
C1548      C1549   1.405       .  A
C1549      C1550   1.400       .  A
C1549      F1552   1.357       .  S
C1550      F1554   1.358       .  S
C1557      C1558   1.409       .  A
C1557      C1562   1.400       .  A
C1557      F1575   1.358       .  S
C1558      C1563   1.492       .  S
C1558      C1559   1.409       .  A
C1559      C1560   1.402       .  A
C1559      F1564   1.358       .  S
C1560      C1561   1.406       .  A
C1560      F1576   1.358       .  S
C1561      C1562   1.404       .  A
C1562      F1565   1.357       .  S
C1563      C1566   1.406       .  A
C1563      C1570   1.408       .  A
C1566      C1567   1.402       .  A
C1566      F1571   1.358       .  S
C1567      C1568   1.412       .  A
C1567      F1573   1.358       .  S
C1568      C1569   1.410       .  A
C1569      C1570   1.401       .  A
C1569      F1572   1.358       .  S
C1570      F1574   1.358       .  S
C1577      C1578   1.410       .  A
C1577      C1582   1.404   1_554  A
C1577      F1595   1.358   1_554  S
C1578      C1583   1.492       .  S
C1578      C1579   1.406       .  A
C1579      C1580   1.400   1_455  A
C1579      F1584   1.358       .  S
C1580      C1581   1.406       .  A
C1580      F1596   1.357       .  S
C1581      C1582   1.404   1_654  A
C1582      F1585   1.358   1_455  S
C1583      C1586   1.409       .  A
C1583      C1590   1.404       .  A
C1586      C1587   1.404       .  A
C1586      F1591   1.358   1_455  S
C1587      C1588   1.411       .  A
C1587      F1593   1.358       .  S
C1588      C1589   1.412       .  A
C1589      C1590   1.401       .  A
C1589      F1592   1.357       .  S
C1590      F1594   1.358       .  S
C1597      C1598   1.402   1_554  A
C1597      C1602   1.398       .  A
C1597      F1615   1.358       .  S
C1598      C1603   1.485       .  S
C1598      C1599   1.402       .  A
C1599      C1600   1.399       .  A
C1599      F1604   1.358       .  S
C1600      C1601   1.419       .  A
C1600      F1616   1.359       .  S
C1601      C1602   1.419   1_556  A
C1602      F1605   1.351       .  S
C1603      C1606   1.408   1_556  A
C1603      C1610   1.406       .  A
C1606      C1607   1.398       .  A
C1606      F1611   1.358       .  S
C1607      C1608   1.405   1_554  A
C1607      F1613   1.358       .  S
C1608      C1609   1.408       .  A
C1609      C1610   1.399       .  A
C1609      F1612   1.357       .  S
C1610      F1614   1.358       .  S
C1617      C1618   1.406       .  A
C1617      C1622   1.401       .  A
C1617      F1635   1.358       .  S
C1618      C1623   1.480       .  S
C1618      C1619   1.403       .  A
C1619      C1620   1.398       .  A
C1619      F1624   1.358       .  S
C1620      C1621   1.410       .  A
C1620      F1636   1.358       .  S
C1621      C1622   1.405       .  A
C1622      F1625   1.357       .  S
C1623      C1626   1.403       .  A
C1623      C1630   1.403       .  A
C1626      C1627   1.402       .  A
C1626      F1631   1.358       .  S
C1627      C1628   1.412       .  A
C1627      F1633   1.358       .  S
C1628      C1629   1.409       .  A
C1629      C1630   1.399       .  A
C1629      F1632   1.357       .  S
C1630      F1634   1.358       .  S
C1637      C1638   1.404       .  A
C1637      C1642   1.402       .  A
C1637      F1655   1.358       .  S
C1638      C1643   1.481       .  S
C1638      C1639   1.403   1_556  A
C1639      C1640   1.399       .  A
C1639      F1644   1.358       .  S
C1640      C1641   1.411       .  A
C1640      F1656   1.358       .  S
C1641      C1642   1.411   1_554  A
C1642      F1645   1.358       .  S
C1643      C1646   1.405       .  A
C1643      C1650   1.404       .  A
C1646      C1647   1.401       .  A
C1646      F1651   1.358       .  S
C1647      C1648   1.408       .  A
C1647      F1653   1.357       .  S
C1648      C1649   1.407       .  A
C1649      C1650   1.398       .  A
C1649      F1652   1.358       .  S
C1650      F1654   1.358       .  S
C1657      C1658   1.409       .  A
C1657      C1662   1.402       .  A
C1657      F1675   1.358       .  S
C1658      C1663   1.488       .  S
C1658      C1659   1.405       .  A
C1659      C1660   1.401       .  A
C1659      F1664   1.358       .  S
C1660      C1661   1.409       .  A
C1660      F1676   1.358       .  S
C1661      C1662   1.406       .  A
C1662      F1665   1.358       .  S
C1663      C1666   1.404       .  A
C1663      C1670   1.409       .  A
C1666      C1667   1.395       .  A
C1666      F1671   1.358       .  S
C1667      C1668   1.409       .  A
C1667      F1673   1.358       .  S
C1668      C1669   1.408       .  A
C1669      C1670   1.407       .  A
C1669      F1672   1.358       .  S
C1670      F1674   1.357       .  S
C1677      C1678   1.397       .  A
C1677      C1682   1.394       .  A
C1677      F1695   1.358       .  S
C1678      C1683   1.481       .  S
C1678      C1679   1.404       .  A
C1679      C1680   1.404       .  A
C1679      F1684   1.358       .  S
C1680      C1681   1.418       .  A
C1680      F1696   1.352       .  S
C1681      C1682   1.419       .  A
C1682      F1685   1.359       .  S
C1683      C1686   1.403       .  A
C1683      C1690   1.398       .  A
C1686      C1687   1.401       .  A
C1686      F1691   1.358       .  S
C1687      C1688   1.416       .  A
C1687      F1693   1.353       .  S
C1688      C1689   1.420       .  A
C1689      C1690   1.396       .  A
C1689      F1692   1.359       .  S
C1690      F1694   1.358       .  S
C1697      C1698   1.408       .  A
C1697      C1702   1.405       .  A
C1697      F1715   1.358       .  S
C1698      C1703   1.490       .  S
C1698      C1699   1.406       .  A
C1699      C1700   1.400       .  A
C1699      F1704   1.358       .  S
C1700      C1701   1.407       .  A
C1700      F1716   1.358       .  S
C1701      C1702   1.407       .  A
C1702      F1705   1.358       .  S
C1703      C1706   1.403       .  A
C1703      C1710   1.404       .  A
C1706      C1707   1.401       .  A
C1706      F1711   1.358       .  S
C1707      C1708   1.418       .  A
C1707      F1713   1.356       .  S
C1708      C1709   1.417       .  A
C1709      C1710   1.403       .  A
C1709      F1712   1.357       .  S
C1710      F1714   1.358       .  S
C1717      C1718   1.402       .  A
C1717      C1722   1.401       .  A
C1717      F1735   1.358       .  S
C1718      C1723   1.475       .  S
C1718      C1719   1.400       .  A
C1719      C1720   1.399       .  A
C1719      F1724   1.358       .  S
C1720      C1721   1.412       .  A
C1720      F1736   1.357       .  S
C1721      C1722   1.412       .  A
C1722      F1725   1.358       .  S
C1723      C1726   1.403       .  A
C1723      C1730   1.401       .  A
C1726      C1727   1.401       .  A
C1726      F1731   1.357       .  S
C1727      C1728   1.409       .  A
C1727      F1733   1.357       .  S
C1728      C1729   1.412       .  A
C1729      C1730   1.397       .  A
C1729      F1732   1.358       .  S
C1730      F1734   1.358       .  S
C1737      C1738   1.400       .  A
C1737      C1742   1.400       .  A
C1737      F1755   1.358       .  S
C1738      C1743   1.476       .  S
C1738      C1739   1.398       .  A
C1739      C1740   1.396       .  A
C1739      F1744   1.358       .  S
C1740      C1741   1.419       .  A
C1740      F1756   1.359       .  S
C1741      C1742   1.418       .  A
C1742      F1745   1.352       .  S
C1743      C1746   1.398       .  A
C1743      C1750   1.399       .  A
C1746      C1747   1.398       .  A
C1746      F1751   1.358       .  S
C1747      C1748   1.419       .  A
C1747      F1753   1.358       .  S
C1748      C1749   1.420       .  A
C1749      C1750   1.399       .  A
C1749      F1752   1.351       .  S
C1750      F1754   1.359       .  S
C1757      C1758   1.407       .  A
C1757      C1762   1.400       .  A
C1757      F1775   1.358       .  S
C1758      C1763   1.484       .  S
C1758      C1759   1.406       .  A
C1759      C1760   1.401       .  A
C1759      F1764   1.358       .  S
C1760      C1761   1.406       .  A
C1760      F1776   1.357       .  S
C1761      C1762   1.403       .  A
C1762      F1765   1.358       .  S
C1763      C1766   1.402       .  A
C1763      C1770   1.400       .  A
C1766      C1767   1.401       .  A
C1766      F1771   1.358       .  S
C1767      C1768   1.419       .  A
C1767      F1773   1.354       .  S
C1768      C1769   1.419       .  A
C1769      C1770   1.399       .  A
C1769      F1772   1.358       .  S
C1770      F1774   1.358       .  S
C1777      C1778   1.401       .  A
C1777      C1782   1.398       .  A
C1777      F1795   1.358       .  S
C1778      C1783   1.476       .  S
C1778      C1779   1.403       .  A
C1779      C1780   1.400       .  A
C1779      F1784   1.358       .  S
C1780      C1781   1.411       .  A
C1780      F1796   1.358       .  S
C1781      C1782   1.412       .  A
C1782      F1785   1.358       .  S
C1783      C1786   1.403       .  A
C1783      C1790   1.405       .  A
C1786      C1787   1.397       .  A
C1786      F1791   1.358       .  S
C1787      C1788   1.406       .  A
C1787      F1793   1.358       .  S
C1788      C1789   1.404       .  A
C1789      C1790   1.399       .  A
C1789      F1792   1.358       .  S
C1790      F1794   1.358       .  S
C1797      C1798   1.406       .  A
C1797      C1802   1.403       .  A
C1797      F1815   1.357       .  S
C1798      C1803   1.477       .  S
C1798      C1799   1.403       .  A
C1799      C1800   1.395       .  A
C1799      F1804   1.358       .  S
C1800      C1801   1.406       .  A
C1800      F1816   1.358       .  S
C1801      C1802   1.405       .  A
C1802      F1805   1.358       .  S
C1803      C1806   1.402       .  A
C1803      C1810   1.404       .  A
C1806      C1807   1.400       .  A
C1806      F1811   1.358       .  S
C1807      C1808   1.410       .  A
C1807      F1813   1.358       .  S
C1808      C1809   1.406       .  A
C1809      C1810   1.399       .  A
C1809      F1812   1.357       .  S
C1810      F1814   1.358       .  S
C1817      C1818   1.404   1_545  A
C1817      C1822   1.404       .  A
C1817      F1835   1.357       .  S
C1818      C1823   1.501       .  S
C1818      C1819   1.406       .  A
C1819      C1820   1.406       .  A
C1819      F1824   1.358       .  S
C1820      C1821   1.423   1_565  A
C1820      F1836   1.355       .  S
C1821      C1822   1.423       .  A
C1822      F1825   1.357       .  S
C1823      C1826   1.409       .  A
C1823      C1830   1.411       .  A
C1826      C1827   1.403       .  A
C1826      F1831   1.358       .  S
C1827      C1828   1.409       .  A
C1827      F1833   1.358       .  S
C1828      C1829   1.408       .  A
C1829      C1830   1.408       .  A
C1829      F1832   1.357       .  S
C1830      F1834   1.357   1_565  S
C1837      C1838   1.408       .  A
C1837      C1842   1.400       .  A
C1837      F1855   1.358       .  S
C1838      C1843   1.481       .  S
C1838      C1839   1.404       .  A
C1839      C1840   1.397       .  A
C1839      F1844   1.358       .  S
C1840      C1841   1.409       .  A
C1840      F1856   1.358       .  S
C1841      C1842   1.403       .  A
C1842      F1845   1.358       .  S
C1843      C1846   1.401       .  A
C1843      C1850   1.401       .  A
C1846      C1847   1.397       .  A
C1846      F1851   1.358       .  S
C1847      C1848   1.421       .  A
C1847      F1853   1.358       .  S
C1848      C1849   1.422   1_565  A
C1849      C1850   1.399   1_545  A
C1849      F1852   1.355   1_556  S
C1850      F1854   1.358   1_565  S
C1857      C1858   1.401       .  A
C1857      C1862   1.400       .  A
C1857      F1875   1.358       .  S
C1858      C1863   1.481       .  S
C1858      C1859   1.401       .  A
C1859      C1860   1.399       .  A
C1859      F1864   1.358       .  S
C1860      C1861   1.415       .  A
C1860      F1876   1.358       .  S
C1861      C1862   1.421       .  A
C1862      F1865   1.354       .  S
C1863      C1866   1.404       .  A
C1863      C1870   1.407       .  A
C1866      C1867   1.398       .  A
C1866      F1871   1.358       .  S
C1867      C1868   1.407       .  A
C1867      F1873   1.358       .  S
C1868      C1869   1.403       .  A
C1869      C1870   1.402       .  A
C1869      F1872   1.358       .  S
C1870      F1874   1.358       .  S
C1877      C1878   1.406       .  A
C1877      C1882   1.401       .  A
C1877      F1895   1.358       .  S
C1878      C1883   1.486       .  S
C1878      C1879   1.405       .  A
C1879      C1880   1.399       .  A
C1879      F1884   1.358       .  S
C1880      C1881   1.411       .  A
C1880      F1896   1.358       .  S
C1881      C1882   1.411       .  A
C1882      F1885   1.358       .  S
C1883      C1886   1.405       .  A
C1883      C1890   1.408       .  A
C1886      C1887   1.398   1_545  A
C1886      F1891   1.358   1_545  S
C1887      C1888   1.409       .  A
C1887      F1893   1.358       .  S
C1888      C1889   1.408   1_565  A
C1889      C1890   1.403       .  A
C1889      F1892   1.357       .  S
C1890      F1894   1.358       .  S
C1897      C1898   1.403       .  A
C1897      C1902   1.407       .  A
C1897      F1915   1.358   1_455  S
C1898      C1903   1.493       .  S
C1898      C1899   1.401       .  A
C1899      C1900   1.401       .  A
C1899      F1904   1.358       .  S
C1900      C1901   1.422       .  A
C1900      F1916   1.357       .  S
C1901      C1902   1.426       .  A
C1902      F1905   1.355   1_455  S
C1903      C1906   1.405       .  A
C1903      C1910   1.407       .  A
C1906      C1907   1.405       .  A
C1906      F1911   1.357       .  S
C1907      C1908   1.412       .  A
C1907      F1913   1.358       .  S
C1908      C1909   1.409       .  A
C1909      C1910   1.404       .  A
C1909      F1912   1.356       .  S
C1910      F1914   1.358       .  S
C1917      C1918   1.407       .  A
C1917      C1922   1.402       .  A
C1917      F1935   1.358       .  S
C1918      C1923   1.483       .  S
C1918      C1919   1.408       .  A
C1919      C1920   1.396       .  A
C1919      F1924   1.358       .  S
C1920      C1921   1.401       .  A
C1920      F1936   1.358       .  S
C1921      C1922   1.405       .  A
C1922      F1925   1.356       .  S
C1923      C1926   1.402       .  A
C1923      C1930   1.398       .  A
C1926      C1927   1.402       .  A
C1926      F1931   1.358       .  S
C1927      C1928   1.422       .  A
C1927      F1933   1.356   1_554  S
C1928      C1929   1.426   1_455  A
C1929      C1930   1.394   1_655  A
C1929      F1932   1.356       .  S
C1930      F1934   1.359   1_455  S
C1937      C1938   1.407       .  A
C1937      C1942   1.403       .  A
C1937      F1955   1.358       .  S
C1938      C1943   1.495       .  S
C1938      C1939   1.406       .  A
C1939      C1940   1.399       .  A
C1939      F1944   1.358       .  S
C1940      C1941   1.415       .  A
C1940      F1956   1.358       .  S
C1941      C1942   1.417       .  A
C1942      F1945   1.356       .  S
C1943      C1946   1.405       .  A
C1943      C1950   1.406       .  A
C1946      C1947   1.400       .  A
C1946      F1951   1.358       .  S
C1947      C1948   1.417       .  A
C1947      F1953   1.355       .  S
C1948      C1949   1.415       .  A
C1949      C1950   1.401       .  A
C1949      F1952   1.356       .  S
C1950      F1954   1.358       .  S
C1957      C1958   1.408       .  A
C1957      C1962   1.400       .  A
C1957      F1975   1.358   1_655  S
C1958      C1963   1.495       .  S
C1958      C1959   1.407       .  A
C1959      C1960   1.406       .  A
C1959      F1964   1.358       .  S
C1960      C1961   1.414       .  A
C1960      F1976   1.358       .  S
C1961      C1962   1.409       .  A
C1962      F1965   1.357       .  S
C1963      C1966   1.406   1_655  A
C1963      C1970   1.409       .  A
C1966      C1967   1.398       .  A
C1966      F1971   1.358       .  S
C1967      C1968   1.411       .  A
C1967      F1973   1.358       .  S
C1968      C1969   1.410       .  A
C1969      C1970   1.407   1_455  A
C1969      F1972   1.355   1_455  S
C1970      F1974   1.358       .  S
C1977      C1978   1.410       .  A
C1977      C1982   1.401       .  A
C1977      F1995   1.358       .  S
C1978      C1983   1.490       .  S
C1978      C1979   1.407       .  A
C1979      C1980   1.402       .  A
C1979      F1984   1.357       .  S
C1980      C1981   1.406       .  A
C1980      F1996   1.358       .  S
C1981      C1982   1.404       .  A
C1982      F1985   1.358       .  S
C1983      C1986   1.399   1_655  A
C1983      C1990   1.406       .  A
C1986      C1987   1.396       .  A
C1986      F1991   1.358       .  S
C1987      C1988   1.424   1_455  A
C1987      F1993   1.355       .  S
C1988      C1989   1.422       .  A
C1989      C1990   1.407       .  A
C1989      F1992   1.355   1_554  S
C1990      F1994   1.358       .  S
C1997      C1998   1.407       .  A
C1997      C2002   1.404       .  A
C1997      F2015   1.357   1_655  S
C1998      C2003   1.484       .  S
C1998      C1999   1.405       .  A
C1999      C2000   1.397       .  A
C1999      F2004   1.358       .  S
C2000      C2001   1.406       .  A
C2000      F2016   1.358       .  S
C2001      C2002   1.406       .  A
C2002      F2005   1.358       .  S
C2003      C2006   1.397       .  A
C2003      C2010   1.401       .  A
C2006      C2007   1.395       .  A
C2006      F2011   1.359       .  S
C2007      C2008   1.429       .  A
C2007      F2013   1.355   1_565  S
C2008      C2009   1.424       .  A
C2009      C2010   1.405       .  A
C2009      F2012   1.357       .  S
C2010      F2014   1.358       .  S
C2017      C2018   1.406       .  A
C2017      C2022   1.400   1_455  A
C2017      F2035   1.358       .  S
C2018      C2023   1.488       .  S
C2018      C2019   1.408       .  A
C2019      C2020   1.403       .  A
C2019      F2024   1.358       .  S
C2020      C2021   1.406   1_455  A
C2020      F2036   1.357       .  S
C2021      C2022   1.408       .  A
C2022      F2025   1.358       .  S
C2023      C2026   1.406       .  A
C2023      C2030   1.405       .  A
C2026      C2027   1.401       .  A
C2026      F2031   1.358       .  S
C2027      C2028   1.410       .  A
C2027      F2033   1.357       .  S
C2028      C2029   1.413       .  A
C2029      C2030   1.404       .  A
C2029      F2032   1.358       .  S
C2030      F2034   1.358       .  S
C2037      C2038   1.406       .  A
C2037      C2042   1.405       .  A
C2037      F2055   1.358       .  S
C2038      C2043   1.479       .  S
C2038      C2039   1.403       .  A
C2039      C2040   1.396       .  A
C2039      F2044   1.358       .  S
C2040      C2041   1.405       .  A
C2040      F2056   1.358       .  S
C2041      C2042   1.406       .  A
C2042      F2045   1.357       .  S
C2043      C2046   1.399       .  A
C2043      C2050   1.396       .  A
C2046      C2047   1.404       .  A
C2046      F2051   1.357       .  S
C2047      C2048   1.424       .  A
C2047      F2053   1.356       .  S
C2048      C2049   1.429       .  A
C2049      C2050   1.396       .  A
C2049      F2052   1.355   1_645  S
C2050      F2054   1.359       .  S
C2057      C2058   1.405       .  A
C2057      C2062   1.400       .  A
C2057      F2075   1.358       .  S
C2058      C2063   1.483       .  S
C2058      C2059   1.402       .  A
C2059      C2060   1.401       .  A
C2059      F2064   1.358       .  S
C2060      C2061   1.411       .  A
C2060      F2076   1.355       .  S
C2061      C2062   1.412       .  A
C2062      F2065   1.358       .  S
C2063      C2066   1.402       .  A
C2063      C2070   1.394       .  A
C2066      C2067   1.406       .  A
C2066      F2071   1.358       .  S
C2067      C2068   1.423       .  A
C2067      F2073   1.356   1_556  S
C2068      C2069   1.431       .  A
C2069      C2070   1.394       .  A
C2069      F2072   1.356   1_655  S
C2070      F2074   1.359       .  S
C2077      C2078   1.397       .  A
C2077      C2082   1.393       .  A
C2077      F2095   1.358       .  S
C2078      C2083   1.479       .  S
C2078      C2079   1.403       .  A
C2079      C2080   1.403       .  A
C2079      F2084   1.358       .  S
C2080      C2081   1.419       .  A
C2080      F2096   1.354       .  S
C2081      C2082   1.417       .  A
C2082      F2085   1.358       .  S
C2083      C2086   1.403       .  A
C2083      C2090   1.408       .  A
C2086      C2087   1.398       .  A
C2086      F2091   1.358       .  S
C2087      C2088   1.407       .  A
C2087      F2093   1.358       .  S
C2088      C2089   1.402       .  A
C2089      C2090   1.400       .  A
C2089      F2092   1.358       .  S
C2090      F2094   1.358       .  S
C2097      C2098   1.406       .  A
C2097      C2102   1.403       .  A
C2097      F2115   1.358       .  S
C2098      C2103   1.488       .  S
C2098      C2099   1.404       .  A
C2099      C2100   1.403       .  A
C2099      F2104   1.358       .  S
C2100      C2101   1.414       .  A
C2100      F2116   1.358       .  S
C2101      C2102   1.410       .  A
C2102      F2105   1.357       .  S
C2103      C2106   1.406       .  A
C2103      C2110   1.409       .  A
C2106      C2107   1.399       .  A
C2106      F2111   1.358       .  S
C2107      C2108   1.404       .  A
C2107      F2113   1.357       .  S
C2108      C2109   1.404       .  A
C2109      C2110   1.404       .  A
C2109      F2112   1.358       .  S
C2110      F2114   1.358       .  S
C2117      C2118   1.404       .  A
C2117      C2122   1.401       .  A
C2117      F2135   1.358       .  S
C2118      C2123   1.489       .  S
C2118      C2119   1.408       .  A
C2119      C2120   1.401       .  A
C2119      F2124   1.358       .  S
C2120      C2121   1.409       .  A
C2120      F2136   1.358       .  S
C2121      C2122   1.413       .  A
C2122      F2125   1.358       .  S
C2123      C2126   1.406       .  A
C2123      C2130   1.409       .  A
C2126      C2127   1.398       .  A
C2126      F2131   1.358       .  S
C2127      C2128   1.406       .  A
C2127      F2133   1.358       .  S
C2128      C2129   1.406       .  A
C2129      C2130   1.404       .  A
C2129      F2132   1.357       .  S
C2130      F2134   1.358       .  S
C2137      C2138   1.400       .  A
C2137      C2142   1.394       .  A
C2137      F2155   1.358   1_554  S
C2138      C2143   1.471       .  S
C2138      C2139   1.405       .  A
C2139      C2140   1.400       .  A
C2139      F2144   1.358       .  S
C2140      C2141   1.405       .  A
C2140      F2156   1.358       .  S
C2141      C2142   1.408       .  A
C2142      F2145   1.358   1_554  S
C2143      C2146   1.399   1_554  A
C2143      C2150   1.397       .  A
C2146      C2147   1.396       .  A
C2146      F2151   1.358       .  S
C2147      C2148   1.416   1_556  A
C2147      F2153   1.357       .  S
C2148      C2149   1.420       .  A
C2149      C2150   1.396       .  A
C2149      F2152   1.356       .  S
C2150      F2154   1.358       .  S
C2157      C2158   1.406       .  A
C2157      C2162   1.402       .  A
C2157      F2175   1.358       .  S
C2158      C2163   1.483       .  S
C2158      C2159   1.406       .  A
C2159      C2160   1.397       .  A
C2159      F2164   1.358       .  S
C2160      C2161   1.405       .  A
C2160      F2176   1.358       .  S
C2161      C2162   1.407       .  A
C2162      F2165   1.358       .  S
C2163      C2166   1.403       .  A
C2163      C2170   1.406       .  A
C2166      C2167   1.397       .  A
C2166      F2171   1.358       .  S
C2167      C2168   1.411       .  A
C2167      F2173   1.358       .  S
C2168      C2169   1.411       .  A
C2169      C2170   1.403       .  A
C2169      F2172   1.358       .  S
C2170      F2174   1.358       .  S
C2177      C2178   1.405       .  A
C2177      C2182   1.398       .  A
C2177      F2195   1.358       .  S
C2178      C2183   1.481       .  S
C2178      C2179   1.406       .  A
C2179      C2180   1.399       .  A
C2179      F2184   1.358       .  S
C2180      C2181   1.406       .  A
C2180      F2196   1.358       .  S
C2181      C2182   1.407       .  A
C2182      F2185   1.357       .  S
C2183      C2186   1.401       .  A
C2183      C2190   1.399       .  A
C2186      C2187   1.401       .  A
C2186      F2191   1.359       .  S
C2187      C2188   1.421       .  A
C2187      F2193   1.351       .  S
C2188      C2189   1.418       .  A
C2189      C2190   1.397       .  A
C2189      F2192   1.358       .  S
C2190      F2194   1.358       .  S
C2197      C2198   1.403       .  A
C2197      C2202   1.397       .  A
C2197      F2215   1.358       .  S
C2198      C2203   1.478       .  S
C2198      C2199   1.404       .  A
C2199      C2200   1.401       .  A
C2199      F2204   1.358       .  S
C2200      C2201   1.407       .  A
C2200      F2216   1.357       .  S
C2201      C2202   1.409       .  A
C2202      F2205   1.358       .  S
C2203      C2206   1.403       .  A
C2203      C2210   1.405       .  A
C2206      C2207   1.399       .  A
C2206      F2211   1.358       .  S
C2207      C2208   1.409       .  A
C2207      F2213   1.358       .  S
C2208      C2209   1.406       .  A
C2209      C2210   1.399       .  A
C2209      F2212   1.357       .  S
C2210      F2214   1.358       .  S
C2217      C2218   1.405       .  A
C2217      C2222   1.403       .  A
C2217      F2235   1.358   1_556  S
C2218      C2223   1.481       .  S
C2218      C2219   1.402       .  A
C2219      C2220   1.397       .  A
C2219      F2224   1.358       .  S
C2220      C2221   1.412       .  A
C2220      F2236   1.358       .  S
C2221      C2222   1.411       .  A
C2222      F2225   1.358       .  S
C2223      C2226   1.403   1_565  A
C2223      C2230   1.407       .  A
C2226      C2227   1.395       .  A
C2226      F2231   1.358       .  S
C2227      C2228   1.408       .  A
C2227      F2233   1.358       .  S
C2228      C2229   1.405   1_556  A
C2229      C2230   1.405   1_544  A
C2229      F2232   1.357   1_545  S
C2230      F2234   1.357   1_556  S
C2237      C2238   1.402       .  A
C2237      C2242   1.400       .  A
C2237      F2255   1.358       .  S
C2238      C2243   1.480       .  S
C2238      C2239   1.405       .  A
C2239      C2240   1.400       .  A
C2239      F2244   1.358   1_565  S
C2240      C2241   1.410       .  A
C2240      F2256   1.358       .  S
C2241      C2242   1.413       .  A
C2242      F2245   1.358       .  S
C2243      C2246   1.406   1_565  A
C2243      C2250   1.405   1_565  A
C2246      C2247   1.401       .  A
C2246      F2251   1.358   1_545  S
C2247      C2248   1.403       .  A
C2247      F2253   1.357       .  S
C2248      C2249   1.404       .  A
C2249      C2250   1.397       .  A
C2249      F2252   1.358       .  S
C2250      F2254   1.358       .  S
C2257      C2258   1.401       .  A
C2257      C2262   1.396   1_554  A
C2257      F2275   1.358       .  S
C2258      C2263   1.472       .  S
C2258      C2259   1.402       .  A
C2259      C2260   1.398   1_554  A
C2259      F2264   1.358       .  S
C2260      C2261   1.411       .  A
C2260      F2276   1.358       .  S
C2261      C2262   1.411       .  A
C2262      F2265   1.358       .  S
C2263      C2266   1.404       .  A
C2263      C2270   1.402       .  A
C2266      C2267   1.399       .  A
C2266      F2271   1.358       .  S
C2267      C2268   1.405       .  A
C2267      F2273   1.358       .  S
C2268      C2269   1.407       .  A
C2269      C2270   1.396       .  A
C2269      F2272   1.358       .  S
C2270      F2274   1.358       .  S
C2277      C2278   1.401       .  A
C2277      C2282   1.398       .  A
C2277      F2295   1.358       .  S
C2278      C2283   1.479       .  S
C2278      C2279   1.400       .  A
C2279      C2280   1.395       .  A
C2279      F2284   1.358       .  S
C2280      C2281   1.416       .  A
C2280      F2296   1.359   1_556  S
C2281      C2282   1.421       .  A
C2282      F2285   1.351       .  S
C2283      C2286   1.401       .  A
C2283      C2290   1.401       .  A
C2286      C2287   1.396       .  A
C2286      F2291   1.358       .  S
C2287      C2288   1.417       .  A
C2287      F2293   1.352       .  S
C2288      C2289   1.417       .  A
C2289      C2290   1.397       .  A
C2289      F2292   1.359       .  S
C2290      F2294   1.358       .  S
C2297      C2298   1.405       .  A
C2297      C2302   1.400       .  A
C2297      F2315   1.358       .  S
C2298      C2303   1.488       .  S
C2298      C2299   1.402       .  A
C2299      C2300   1.396       .  A
C2299      F2304   1.358       .  S
C2300      C2301   1.417       .  A
C2300      F2316   1.359       .  S
C2301      C2302   1.418       .  A
C2302      F2305   1.352       .  S
C2303      C2306   1.407       .  A
C2303      C2310   1.407       .  A
C2306      C2307   1.399       .  A
C2306      F2311   1.358       .  S
C2307      C2308   1.406       .  A
C2307      F2313   1.356       .  S
C2308      C2309   1.410       .  A
C2309      C2310   1.399       .  A
C2309      F2312   1.358       .  S
C2310      F2314   1.358       .  S
C2317      C2318   1.403       .  A
C2317      C2322   1.399       .  A
C2317      F2335   1.358       .  S
C2318      C2323   1.482       .  S
C2318      C2319   1.405       .  A
C2319      C2320   1.402       .  A
C2319      F2324   1.358       .  S
C2320      C2321   1.411       .  A
C2320      F2336   1.358       .  S
C2321      C2322   1.411       .  A
C2322      F2325   1.358       .  S
C2323      C2326   1.406       .  A
C2323      C2330   1.406       .  A
C2326      C2327   1.400       .  A
C2326      F2331   1.358       .  S
C2327      C2328   1.406       .  A
C2327      F2333   1.358       .  S
C2328      C2329   1.403       .  A
C2329      C2330   1.400       .  A
C2329      F2332   1.356       .  S
C2330      F2334   1.358       .  S
C2337      C2338   1.398       .  A
C2337      C2342   1.396       .  A
C2337      F2355   1.358       .  S
C2338      C2343   1.477       .  S
C2338      C2339   1.401       .  A
C2339      C2340   1.399       .  A
C2339      F2344   1.358       .  S
C2340      C2341   1.419       .  A
C2340      F2356   1.351       .  S
C2341      C2342   1.418       .  A
C2342      F2345   1.359       .  S
C2343      C2346   1.401       .  A
C2343      C2350   1.400       .  A
C2346      C2347   1.399       .  A
C2346      F2351   1.358       .  S
C2347      C2348   1.418       .  A
C2347      F2353   1.354       .  S
C2348      C2349   1.416       .  A
C2349      C2350   1.397       .  A
C2349      F2352   1.358       .  S
C2350      F2354   1.358       .  S
C2357      C2358   1.406       .  A
C2357      C2362   1.401       .  A
C2357      F2375   1.358       .  S
C2358      C2363   1.485       .  S
C2358      C2359   1.406       .  A
C2359      C2360   1.399       .  A
C2359      F2364   1.358       .  S
C2360      C2361   1.409       .  A
C2360      F2376   1.358       .  S
C2361      C2362   1.407       .  A
C2362      F2365   1.357       .  S
C2363      C2366   1.403       .  A
C2363      C2370   1.401       .  A
C2366      C2367   1.400       .  A
C2366      F2371   1.358       .  S
C2367      C2368   1.420       .  A
C2367      F2373   1.352       .  S
C2368      C2369   1.417       .  A
C2369      C2370   1.399       .  A
C2369      F2372   1.358       .  S
C2370      F2374   1.358       .  S
C2377      C2378   1.405       .  A
C2377      C2382   1.401       .  A
C2377      F2395   1.358       .  S
C2378      C2383   1.481       .  S
C2378      C2379   1.404       .  A
C2379      C2380   1.397       .  A
C2379      F2384   1.358       .  S
C2380      C2381   1.409       .  A
C2380      F2396   1.358       .  S
C2381      C2382   1.408       .  A
C2382      F2385   1.357       .  S
C2383      C2386   1.405       .  A
C2383      C2390   1.404       .  A
C2386      C2387   1.399       .  A
C2386      F2391   1.358       .  S
C2387      C2388   1.410       .  A
C2387      F2393   1.358       .  S
C2388      C2389   1.409       .  A
C2389      C2390   1.398       .  A
C2389      F2392   1.358       .  S
C2390      F2394   1.358       .  S
C2397      C2398   1.405       .  A
C2397      C2402   1.401       .  A
C2397      F2415   1.358       .  S
C2398      C2403   1.481       .  S
C2398      C2399   1.402       .  A
C2399      C2400   1.402       .  A
C2399      F2404   1.358       .  S
C2400      C2401   1.411       .  A
C2400      F2416   1.358       .  S
C2401      C2402   1.405       .  A
C2402      F2405   1.354       .  S
C2403      C2406   1.406       .  A
C2403      C2410   1.403       .  A
C2406      C2407   1.406       .  A
C2406      F2411   1.357       .  S
C2407      C2408   1.406       .  A
C2407      F2413   1.357       .  S
C2408      C2409   1.406       .  A
C2409      C2410   1.397       .  A
C2409      F2412   1.358       .  S
C2410      F2414   1.358       .  S
