geometry optimzed in LAMMPS
_audit_creation_date              2020-11-30 
_audit_creation_method            'lammps2cif' 
_symmetry_space_group_name_H-M    'P1' 
_symmetry_Int_Tables_number       1 
_symmetry_cell_setting            triclinic 
loop_ 
_symmetry_equiv_pos_as_xyz 
  x,y,z 
_cell_length_a                    54.57456685 
_cell_length_b                    30.613610262485075 
_cell_length_c                    41.15453874534597 
_cell_angle_alpha                 89.00926117486935 
_cell_angle_beta                  89.84285829302846 
_cell_angle_gamma                 89.95943528855271 
loop_ 
_atom_site_label 
_atom_site_type_symbol 
_atom_site_fract_x 
_atom_site_fract_y 
_atom_site_fract_z 
_atom_site_charge 
In1        In  0.20094204  0.65759461  0.25137947     1.36900
C2          C  0.21477582  0.57445012  0.25240149     0.77100
O3          O  0.19998830  0.65063736  0.19766293    -0.61400
O4          O  0.22702172  0.69253274  0.21732141    -0.52300
C5          C  0.15751371  0.69714322  0.25003065     0.69700
O6          O  0.15982942  0.65617256  0.25233943    -0.47100
C7          C  0.21596505  0.67665094  0.31083660     0.74400
O8          O  0.19244179  0.58553460  0.25101067    -0.59000
O9          O  0.22449543  0.69561244  0.28571294    -0.49100
O10         O  0.22966029  0.60589070  0.25300879    -0.55400
C11         C  0.21808320  0.67532377  0.19227739     0.84600
O12         O  0.17750654  0.71773084  0.24848806    -0.57300
O13         O  0.19940164  0.64915374  0.30525605    -0.60600
In14       In  0.01752780  0.81494988  0.24893695     1.36900
C15         C  0.00277952  0.89787850  0.24873032     0.77100
O16         O  0.01746583  0.82017076  0.19495177    -0.61400
O17         O  0.49492453  0.77159069  0.21688564    -0.52300
C18         C  0.06219942  0.78044011  0.24799464     0.69700
O19         O  0.05848961  0.82091330  0.24426803    -0.47100
C20         C  0.50285311  0.79291813  0.30849320     0.74400
O21         O  0.02512567  0.88713058  0.24984117    -0.59000
O22         O  0.49303452  0.77752822  0.28340138    -0.49100
O23         O  0.48807472  0.86615496  0.24765522    -0.55400
C24         C  0.50258580  0.78934153  0.19086223     0.84600
O25         O  0.04308625  0.75805472  0.25236993    -0.57300
O26         O  0.02021893  0.81912084  0.30283152    -0.60600
In27       In  0.45419355  0.80055035  0.00066340     1.36900
C28         C  0.46767664  0.88396509  0.00014508     0.77100
O29         O  0.45182337  0.80294014  0.05460514    -0.61400
O30         O  0.47927338  0.76245475  0.03425763    -0.52300
C31         C  0.41008682  0.76318959  0.99927064     0.69700
O32         O  0.41309002  0.80347060  0.50409141    -0.47100
C33         C  0.47031052  0.78446332  0.44124827     0.74400
O34         O  0.44553247  0.87240791  0.99756825    -0.59000
O35         O  0.47863402  0.76411038  0.46585683    -0.49100
O36         O  0.48261038  0.85281178  0.50365437    -0.55400
C37         C  0.46965069  0.77757976  0.05968741     0.84600
O38         O  0.42969574  0.74222688  0.99511899    -0.57300
O39         O  0.45398519  0.81217886  0.44752490    -0.60600
In40       In  0.26825208  0.65029648  0.00093207     1.36900
C41         C  0.25021310  0.56966027  0.50034301     0.77100
O42         O  0.26989903  0.63941282  0.05475009    -0.61400
O43         O  0.24766497  0.69122782  0.03652034    -0.52300
C44         C  0.31323396  0.68428272  0.00010500     0.69700
O45         O  0.30938321  0.64359596  0.49873162    -0.47100
C46         C  0.25207599  0.67364559  0.44213951     0.74400
O47         O  0.27295818  0.57737381  0.99819819    -0.59000
O48         O  0.24336060  0.68976398  0.46779990    -0.49100
O49         O  0.23691060  0.60307117  0.50326621    -0.55400
C50         C  0.25514476  0.66987154  0.06114340     0.84600
O51         O  0.29404536  0.70696423  0.00202238    -0.57300
O52         O  0.26932935  0.64696031  0.44689523    -0.60600
In53       In  0.45510767  0.16102257  0.24904413     1.36900
C54         C  0.46925234  0.07766487  0.24919108     0.77100
O55         O  0.45401145  0.15436637  0.19548337    -0.61400
O56         O  0.48016662  0.19831561  0.21469550    -0.52300
C57         C  0.41107200  0.20018738  0.24918933     0.69700
O58         O  0.41373492  0.15916432  0.25070945    -0.47100
C59         C  0.47116781  0.17701721  0.30839485     0.74400
O60         O  0.44693467  0.08881285  0.24758431    -0.59000
O61         O  0.47999459  0.19638259  0.28361413    -0.49100
O62         O  0.48408938  0.10912475  0.25045831    -0.55400
C63         C  0.47132193  0.18065170  0.18977049     0.84600
O64         O  0.43098705  0.22097218  0.24769676    -0.57300
O65         O  0.45374200  0.15139217  0.30250827    -0.60600
In66       In  0.26893626  0.31561619  0.25245843     1.36900
C67         C  0.25193782  0.39715242  0.25321045     0.77100
O68         O  0.26869198  0.32430000  0.19849405    -0.61400
O69         O  0.24510947  0.27624691  0.21905639    -0.52300
C70         C  0.31434649  0.28178882  0.25130465     0.69700
O71         O  0.31033607  0.32247675  0.25120711    -0.47100
C72         C  0.25400812  0.29166755  0.31174894     0.74400
O73         O  0.27461571  0.38861688  0.25210716    -0.59000
O74         O  0.24618812  0.27349807  0.28647068    -0.49100
O75         O  0.23821422  0.36404369  0.25415534    -0.55400
C76         C  0.25263670  0.29559278  0.19358334     0.84600
O77         O  0.29514685  0.25901867  0.25234539    -0.57300
O78         O  0.26964416  0.32124258  0.30633281    -0.60600
In79       In  0.02021041  0.14315574  0.99998694     1.36900
C80         C  0.00351087  0.06186108  0.50064934     0.77100
O81         O  0.02027751  0.13703128  0.05397868    -0.61400
O82         O  0.49669128  0.18433801  0.03241771    -0.52300
C83         C  0.06457648  0.17890368  0.99954712     0.69700
O84         O  0.06143669  0.13815588  0.49749093    -0.47100
C85         C  0.50623137  0.16473020  0.44014373     0.74400
O86         O  0.02603525  0.07056677  0.00396843    -0.59000
O87         O  0.49766304  0.18307838  0.46499137    -0.49100
O88         O  0.48977090  0.09479279  0.49752001    -0.55400
C89         C  0.50473113  0.16691163  0.05831896     0.84600
O90         O  0.04508817  0.20061143  0.00219270    -0.57300
O91         O  0.02227119  0.13610288  0.44619825    -0.60600
In92       In  0.20123554  0.30854576  0.00142060     1.36900
C93         C  0.21376138  0.39247761  0.49820482     0.77100
O94         O  0.19849978  0.31672290  0.05533505    -0.61400
O95         O  0.22550201  0.27340645  0.03766514    -0.52300
C96         C  0.15845729  0.26728892  0.00045111     0.69700
O97         O  0.16015228  0.30836208  0.50166868    -0.47100
C98         C  0.21786612  0.28782003  0.44296100     0.74400
O99         O  0.19165478  0.38024819  0.00001739    -0.59000
O100        O  0.22757682  0.27317889  0.46884189    -0.49100
O101        O  0.22920922  0.36186237  0.49773900    -0.55400
C102        C  0.21602397  0.29139439  0.06210120     0.84600
O103        O  0.17875206  0.24756816  0.99983931    -0.57300
O104        O  0.19938063  0.31181311  0.44729018    -0.60600
C105        C  0.09253199  0.23878184  0.48002491    -0.02400
C106        C  0.08894653  0.20023100  0.99881161     0.07300
C107        C  0.10842451  0.18326226  0.01767934    -0.02500
C108        C  0.13117147  0.20503383  0.01813367    -0.02500
C109        C  0.13465589  0.24395288  0.99968777     0.07500
C110        C  0.11527950  0.26045434  0.48035157    -0.02700
Br111      Br  0.12008917  0.31144998  0.45267380    -0.01200
Br112      Br  0.06665020  0.26130242  0.45239838    -0.01300
Br113      Br  0.15696144  0.18238204  0.04580692    -0.01300
Br114      Br  0.10362529  0.13174796  0.04473330    -0.01200
C115        C  0.25083221  0.28626766  0.10180766    -0.02400
C116        C  0.22534636  0.28552491  0.09584247     0.07300
C117        C  0.20892746  0.28264392  0.12249556    -0.02500
C118        C  0.21785187  0.28291837  0.15467341    -0.02500
C119        C  0.24325904  0.28685343  0.16046360     0.07500
C120        C  0.25968608  0.28650072  0.13391367    -0.02700
Br121      Br  0.29462478  0.28494835  0.14136568    -0.01200
Br122      Br  0.27398695  0.29096761  0.06629318    -0.01300
Br123      Br  0.19494607  0.27982871  0.19056570    -0.01300
Br124      Br  0.17404226  0.27817432  0.11530216    -0.01200
C125        C  0.22026885  0.27247128  0.35169616    -0.02400
C126        C  0.24530534  0.28095904  0.34520576     0.07300
C127        C  0.26181651  0.28385655  0.37146267    -0.02500
C128        C  0.25302681  0.28484571  0.40362212    -0.02500
C129        C  0.22776453  0.27972123  0.41000741     0.07500
C130        C  0.21167149  0.27105738  0.38406687    -0.02700
Br131      Br  0.17776474  0.25682865  0.39288068    -0.01200
Br132      Br  0.19713526  0.26546977  0.31669853    -0.01300
Br133      Br  0.27557560  0.29786102  0.43823094    -0.01300
Br134      Br  0.29675420  0.28500856  0.36360395    -0.01200
C135        C  0.51389109  0.17980018  0.11706242    -0.02400
C136        C  0.49672329  0.17960246  0.09136400     0.07300
C137        C  0.97183623  0.18878036  0.09806227    -0.02500
C138        C  0.46387544  0.19268396  0.13047453    -0.02500
C139        C  0.48066081  0.18795997  0.15630707     0.07500
C140        C  0.50590368  0.18415988  0.14943279    -0.02700
Br141      Br  0.52960659  0.18187904  0.18418872    -0.01200
Br142      Br  0.54859330  0.17463942  0.10814975    -0.01300
Br143      Br  0.92976840  0.20460437  0.13962877    -0.01300
Br144      Br  0.94803700  0.19343050  0.06353060    -0.01200
C145        C  0.46404726  0.18406257  0.36805834    -0.02400
C146        C  0.48068280  0.18181047  0.34181581     0.07300
C147        C  0.50605959  0.17861358  0.34810506    -0.02500
C148        C  0.01452189  0.17476236  0.38036863    -0.02500
C149        C  0.49770160  0.17449352  0.40659869     0.07500
C150        C  0.47246918  0.18053909  0.40028374    -0.02700
Br151      Br  0.44877761  0.18061909  0.43530472    -0.01200
Br152      Br  0.42940545  0.19185085  0.35999217    -0.01300
Br153      Br  0.04935854  0.17006317  0.38830453    -0.01300
Br154      Br  0.02936692  0.17616765  0.31273244    -0.01200
C155        C  0.38228836  0.25953828  0.26790480    -0.02400
C156        C  0.38656188  0.22198886  0.24908735     0.07300
C157        C  0.36726052  0.20532788  0.23017312    -0.02500
C158        C  0.34381562  0.22486980  0.23086676    -0.02500
C159        C  0.33939056  0.26203441  0.25007493     0.07500
C160        C  0.35889504  0.27946965  0.26831726    -0.02700
Br161      Br  0.35349461  0.32928838  0.29566457    -0.01200
Br162      Br  0.40805637  0.28275150  0.29467160    -0.01300
Br163      Br  0.31817741  0.20136813  0.20396604    -0.01300
Br164      Br  0.37318482  0.15730626  0.20127206    -0.01200
C165        C  0.24454288  0.49865519  0.47205959    -0.02400
C166        C  0.23984557  0.52504538  0.49911684     0.07300
C167        C  0.22489347  0.50893998  0.02466938    -0.02500
C168        C  0.21541742  0.46613646  0.02364428    -0.02500
C169        C  0.22129155  0.43890775  0.49744295     0.07500
C170        C  0.23567817  0.45543728  0.47147260    -0.02700
Br171      Br  0.24255497  0.41933524  0.43452168    -0.01200
Br172      Br  0.26177764  0.52278446  0.43485043    -0.01300
Br173      Br  0.19546489  0.44399065  0.05906724    -0.01300
Br174      Br  0.21849408  0.54461555  0.06199111    -0.01200
C175        C  0.00498390  0.98554889  0.47979537    -0.02400
C176        C  0.49387012  0.01669811  0.49994529     0.07300
C177        C  0.47291737  0.00500385  0.01836618    -0.02500
C178        C  0.46371408  0.96202016  0.01751182    -0.02500
C179        C  0.47577239  0.93015897  0.49890732     0.07500
C180        C  0.99614157  0.94235446  0.47950148    -0.02700
Br181      Br  0.01095548  0.90080613  0.45053198    -0.00400
Br182      Br  0.03107565  0.00284468  0.45044554    -0.01300
Br183      Br  0.43495937  0.94683958  0.04273532    -0.01300
Br184      Br  0.45731626  0.04725500  0.04601979    -0.01200
C185        C  0.34256296  0.74340721  0.48185572    -0.02400
C186        C  0.33816391  0.70400677  0.99947938     0.07300
C187        C  0.35764616  0.68399932  0.01672573    -0.02500
C188        C  0.38127803  0.70265522  0.01593746    -0.02500
C189        C  0.38553461  0.74229782  0.99872869     0.07500
C190        C  0.36612948  0.76226713  0.48142755    -0.02700
Br191      Br  0.37208094  0.81412135  0.45508447    -0.01200
Br192      Br  0.31671450  0.77150018  0.45714774    -0.01300
Br193      Br  0.40751969  0.67436947  0.03969929    -0.01300
Br194      Br  0.35180257  0.63291296  0.04392050    -0.01200
C195        C  0.00268437  0.97266616  0.27281070    -0.02400
C196        C  0.49440132  0.94395858  0.24873387     0.07300
C197        C  0.47790054  0.95932477  0.22475668    -0.02500
C198        C  0.46972726  0.00303871  0.22489025    -0.02500
C199        C  0.47756729  0.03150215  0.24935987     0.07500
C200        C  0.99411736  0.01613412  0.27332717    -0.02700
Br201      Br  0.00425652  0.05388935  0.30793287    -0.01200
Br202      Br  0.02509231  0.95207780  0.30598654    -0.01300
Br203      Br  0.44926927  0.02481063  0.18999890    -0.01300
Br204      Br  0.46769660  0.92130488  0.19034537    -0.01200
C205        C  0.00414948  0.77337419  0.09983986    -0.02400
C206        C  0.47896703  0.76899639  0.09297262     0.07300
C207        C  0.46221457  0.76279861  0.11883205    -0.02500
C208        C  0.46995469  0.76716038  0.15124117    -0.02500
C209        C  0.49478122  0.77625356  0.15795264     0.07500
C210        C  0.01203645  0.77649268  0.13225725    -0.02700
Br211      Br  0.04667713  0.78110041  0.14123642    -0.01200
Br212      Br  0.02792177  0.77861962  0.06513257    -0.01300
Br213      Br  0.44588702  0.76440853  0.18571677    -0.01300
Br214      Br  0.42861138  0.74765652  0.10977034    -0.01200
C215        C  0.01171594  0.77665929  0.36721928    -0.02400
C216        C  0.49443391  0.78261334  0.34199488     0.07300
C217        C  0.46916994  0.78224724  0.34946770    -0.02500
C218        C  0.46138911  0.77936463  0.38203221    -0.02500
C219        C  0.47873249  0.77775119  0.40745565     0.07500
C220        C  0.00392908  0.77454926  0.39989812    -0.02700
Br221      Br  0.02815748  0.77048850  0.43394761    -0.01200
Br222      Br  0.04619701  0.77087968  0.35710681    -0.01300
Br223      Br  0.42665801  0.77748489  0.39164808    -0.01300
Br224      Br  0.44487675  0.78939542  0.31569682    -0.01200
C225        C  0.22352203  0.45492552  0.23116139    -0.02400
C226        C  0.24204365  0.44226544  0.25335000     0.07300
C227        C  0.25063644  0.47253104  0.27611116    -0.02500
C228        C  0.24103531  0.51525378  0.27645971    -0.02500
C229        C  0.22319207  0.52842863  0.25348549     0.07500
C230        C  0.21434237  0.49802015  0.23096656    -0.02700
Br231      Br  0.19073173  0.51586090  0.19844337    -0.01200
Br232      Br  0.21143726  0.41387799  0.19986060    -0.01300
Br233      Br  0.25127954  0.55487131  0.30990856    -0.01300
Br234      Br  0.27463184  0.45489065  0.30814055    -0.01200
C235        C  0.25361019  0.67532718  0.15348897    -0.02400
C236        C  0.22833811  0.68149136  0.15917881     0.07300
C237        C  0.21242493  0.68844758  0.13264409    -0.02500
C238        C  0.22131679  0.68613399  0.10057806    -0.02500
C239        C  0.24644230  0.67801513  0.09473129     0.07500
C240        C  0.26267085  0.67401202  0.12139316    -0.02700
Br241      Br  0.29745496  0.66661904  0.11436734    -0.01200
Br242      Br  0.27566077  0.66470414  0.18947635    -0.01300
Br243      Br  0.19825262  0.68974249  0.06505973    -0.01300
Br244      Br  0.17820592  0.70122966  0.14017699    -0.01200
C245        C  0.25911192  0.68711331  0.38259406    -0.02400
C246        C  0.24257626  0.68324789  0.40897252     0.07300
C247        C  0.21711724  0.68388376  0.40283605    -0.02500
C248        C  0.20843350  0.68495550  0.37058696    -0.02500
C249        C  0.22507612  0.68420471  0.34422002     0.07500
C250        C  0.25047251  0.68676170  0.35037151    -0.02700
Br251      Br  0.27388361  0.68626002  0.31504901    -0.01200
Br252      Br  0.29376052  0.69405235  0.39047350    -0.01300
Br253      Br  0.17357713  0.68827308  0.36263524    -0.01300
Br254      Br  0.19382096  0.68023390  0.43819965    -0.01200
C255        C  0.09118954  0.72270669  0.22908351    -0.02400
C256        C  0.08687074  0.76041628  0.24749998     0.07300
C257        C  0.10594002  0.77794312  0.26630132    -0.02500
C258        C  0.12909304  0.75750002  0.26704126    -0.02500
C259        C  0.13334458  0.71934360  0.24894224     0.07500
C260        C  0.11432627  0.70236133  0.22966467    -0.02700
Br261      Br  0.12011575  0.65250928  0.20246980    -0.01200
Br262      Br  0.06571505  0.69949226  0.20182573    -0.01300
Br263      Br  0.15433456  0.78079451  0.29463120    -0.01300
Br264      Br  0.09989730  0.82825424  0.29294100    -0.01200
In265      In  0.20094208  0.65759462  0.75137943     1.36900
C266        C  0.21477603  0.57445013  0.75240148     0.77100
O267        O  0.19998830  0.65063718  0.69766290    -0.61400
O268        O  0.22702165  0.69253276  0.71732127    -0.52300
C269        C  0.15751318  0.69714138  0.75003066     0.69700
O270        O  0.15982951  0.65617326  0.75233940    -0.47100
C271        C  0.21596513  0.67665093  0.81083651     0.74400
O272        O  0.19244179  0.58553463  0.75101052    -0.59000
O273        O  0.22449545  0.69561247  0.78571290    -0.49100
O274        O  0.22966030  0.60589068  0.75300887    -0.55400
C275        C  0.21808347  0.67532413  0.69227765     0.84600
O276        O  0.17750689  0.71773132  0.74848804    -0.57300
O277        O  0.19940172  0.64915363  0.80525597    -0.60600
In278      In  0.01752786  0.81494991  0.74893697     1.36900
C279        C  0.00277902  0.89787822  0.74873022     0.77100
O280        O  0.01746555  0.82017008  0.69495183    -0.61400
O281        O  0.49492457  0.77159038  0.71688586    -0.52300
C282        C  0.06219961  0.78044043  0.74799471     0.69700
O283        O  0.05848967  0.82091330  0.74426809    -0.47100
C284        C  0.50285260  0.79291762  0.80849289     0.74400
O285        O  0.02512590  0.88713059  0.74984125    -0.59000
O286        O  0.49303462  0.77752849  0.78340149    -0.49100
O287        O  0.48807471  0.86615491  0.74765517    -0.55400
C288        C  0.50258635  0.78934237  0.69086165     0.84600
O289        O  0.04308628  0.75805472  0.75237002    -0.57300
O290        O  0.02021892  0.81912097  0.80283155    -0.60600
In291      In  0.45419348  0.80055036  0.50066347     1.36900
C292        C  0.46767670  0.88396503  0.50014511     0.77100
O293        O  0.45182355  0.80294003  0.55460517    -0.61400
O294        O  0.47927342  0.76245448  0.53425742    -0.52300
C295        C  0.41008708  0.76318879  0.49927067     0.69700
O296        O  0.41309012  0.80347042  0.00409125    -0.47100
C297        C  0.47031125  0.78446214  0.94124865     0.74400
O298        O  0.44553235  0.87240793  0.49756838    -0.59000
O299        O  0.47863387  0.76411052  0.96585651    -0.49100
O300        O  0.48261048  0.85281173  0.00365441    -0.55400
C301        C  0.46965024  0.77758029  0.55968791     0.84600
O302        O  0.42969553  0.74222705  0.49511907    -0.57300
O303        O  0.45398509  0.81217929  0.94752485    -0.60600
In304      In  0.26825204  0.65029639  0.50093210     1.36900
C305        C  0.25021326  0.56966013  0.00034294     0.77100
O306        O  0.26989921  0.63941252  0.55475016    -0.61400
O307        O  0.24766499  0.69122739  0.53652060    -0.52300
C308        C  0.31323370  0.68428295  0.50010499     0.69700
O309        O  0.30938324  0.64359611  0.99873163    -0.47100
C310        C  0.25207647  0.67364503  0.94213906     0.74400
O311        O  0.27295817  0.57737371  0.49819818    -0.59000
O312        O  0.24336050  0.68976419  0.96780004    -0.49100
O313        O  0.23691061  0.60307136  0.00326612    -0.55400
C314        C  0.25514427  0.66987249  0.56114297     0.84600
O315        O  0.29404537  0.70696405  0.50202241    -0.57300
O316        O  0.26932925  0.64696066  0.94689520    -0.60600
In317      In  0.45510765  0.16102258  0.74904417     1.36900
C318        C  0.46925211  0.07766485  0.74919105     0.77100
O319        O  0.45401160  0.15436679  0.69548346    -0.61400
O320        O  0.48016675  0.19831591  0.71469588    -0.52300
C321        C  0.41107184  0.20018753  0.74918937     0.69700
O322        O  0.41373494  0.15916423  0.75070950    -0.47100
C323        C  0.47116777  0.17701720  0.80839474     0.74400
O324        O  0.44693475  0.08881283  0.74758432    -0.59000
O325        O  0.47999459  0.19638246  0.78361426    -0.49100
O326        O  0.48408943  0.10912481  0.75045837    -0.55400
C327        C  0.47132131  0.18065095  0.68976995     0.84600
O328        O  0.43098707  0.22097216  0.74769681    -0.57300
O329        O  0.45374190  0.15139223  0.80250834    -0.60600
In330      In  0.26893622  0.31561614  0.75245842     1.36900
C331        C  0.25193808  0.39715265  0.75321052     0.77100
O332        O  0.26869210  0.32430023  0.69849401    -0.61400
O333        O  0.24510947  0.27624724  0.71905611    -0.52300
C334        C  0.31434664  0.28178882  0.75130463     0.69700
O335        O  0.31033600  0.32247670  0.75120715    -0.47100
C336        C  0.25400801  0.29166726  0.81174876     0.74400
O337        O  0.27461560  0.38861683  0.75210711    -0.59000
O338        O  0.24618812  0.27349803  0.78647074    -0.49100
O339        O  0.23821413  0.36404354  0.75415547    -0.55400
C340        C  0.25263613  0.29559188  0.69358389     0.84600
O341        O  0.29514673  0.25901857  0.75234527    -0.57300
O342        O  0.26964415  0.32124254  0.80633284    -0.60600
In343      In  0.02021037  0.14315578  0.49998697     1.36900
C344        C  0.00351128  0.06186086  0.00064932     0.77100
O345        O  0.02027775  0.13703108  0.55397871    -0.61400
O346        O  0.49669111  0.18433806  0.53241760    -0.52300
C347        C  0.06457647  0.17890376  0.49954706     0.69700
O348        O  0.06143673  0.13815582  0.99749098    -0.47100
C349        C  0.50623170  0.16472961  0.94014364     0.74400
O350        O  0.02603532  0.07056678  0.50396853    -0.59000
O351        O  0.49766301  0.18307850  0.96499146    -0.49100
O352        O  0.48977089  0.09479290  0.99752001    -0.55400
C353        C  0.50473136  0.16691121  0.55831941     0.84600
O354        O  0.04508812  0.20061149  0.50219270    -0.57300
O355        O  0.02227157  0.13610219  0.94619822    -0.60600
In356      In  0.20123548  0.30854579  0.50142055     1.36900
C357        C  0.21376130  0.39247781  0.99820490     0.77100
O358        O  0.19849967  0.31672276  0.55533504    -0.61400
O359        O  0.22550202  0.27340663  0.53766508    -0.52300
C360        C  0.15845740  0.26728829  0.50045108     0.69700
O361        O  0.16015235  0.30836174  0.00166866    -0.47100
C362        C  0.21786671  0.28781934  0.94296159     0.74400
O363        O  0.19165468  0.38024822  0.50001723    -0.59000
O364        O  0.22757677  0.27317915  0.96884163    -0.49100
O365        O  0.22920931  0.36186231  0.99773895    -0.55400
C366        C  0.21602393  0.29139442  0.56210104     0.84600
O367        O  0.17875189  0.24756839  0.49983919    -0.57300
O368        O  0.19938042  0.31181322  0.94729021    -0.60600
C369        C  0.09253208  0.23878161  0.98002494    -0.02400
C370        C  0.08894646  0.20023100  0.49881158     0.07300
C371        C  0.10842445  0.18326239  0.51767921    -0.02500
C372        C  0.13117143  0.20503373  0.51813368    -0.02500
C373        C  0.13465575  0.24395332  0.49968761     0.07500
C374        C  0.11527956  0.26045435  0.98035151    -0.02700
Br375      Br  0.12008924  0.31144984  0.95267382    -0.01200
Br376      Br  0.06665030  0.26130217  0.95239826    -0.01300
Br377      Br  0.15696138  0.18238207  0.54580683    -0.01300
Br378      Br  0.10362525  0.13174789  0.54473311    -0.01200
C379        C  0.25083223  0.28626757  0.60180755    -0.02400
C380        C  0.22534626  0.28552491  0.59584257     0.07300
C381        C  0.20892748  0.28264399  0.62249541    -0.02500
C382        C  0.21785164  0.28291838  0.65467353    -0.02500
C383        C  0.24325930  0.28685359  0.66046325     0.07500
C384        C  0.25968586  0.28650061  0.63391387    -0.02700
Br385      Br  0.29462472  0.28494809  0.64136575    -0.01200
Br386      Br  0.27398696  0.29096736  0.56629323    -0.01300
Br387      Br  0.19494599  0.27982880  0.69056565    -0.01300
Br388      Br  0.17404219  0.27817442  0.61530215    -0.01200
C389        C  0.22026872  0.27247116  0.85169603    -0.02400
C390        C  0.24530545  0.28095900  0.84520594     0.07300
C391        C  0.26181636  0.28385650  0.87146253    -0.02500
C392        C  0.25302694  0.28484575  0.90362227    -0.02500
C393        C  0.22776417  0.27972120  0.91000709     0.07500
C394        C  0.21167162  0.27105739  0.88406703    -0.02700
Br395      Br  0.17776468  0.25682874  0.89288069    -0.01200
Br396      Br  0.19713527  0.26546951  0.81669850    -0.01300
Br397      Br  0.27557561  0.29786111  0.93823088    -0.01300
Br398      Br  0.29675416  0.28500862  0.86360396    -0.01200
C399        C  0.51389123  0.17980022  0.61706268    -0.02400
C400        C  0.49672299  0.17960257  0.59136376     0.07300
C401        C  0.97183605  0.18878038  0.59806240    -0.02500
C402        C  0.46387519  0.19268403  0.63047437    -0.02500
C403        C  0.48066117  0.18796011  0.65630753     0.07500
C404        C  0.50590344  0.18415992  0.64943265    -0.02700
Br405      Br  0.52960654  0.18187882  0.68418882    -0.01200
Br406      Br  0.54859328  0.17463952  0.60814984    -0.01300
Br407      Br  0.92976834  0.20460413  0.63962881    -0.01300
Br408      Br  0.94803700  0.19343058  0.56353065    -0.01200
C409        C  0.46404717  0.18406254  0.86805833    -0.02400
C410        C  0.48068281  0.18181039  0.84181599     0.07300
C411        C  0.50605947  0.17861355  0.84810502    -0.02500
C412        C  0.01452155  0.17476235  0.88036881    -0.02500
C413        C  0.49770136  0.17449362  0.90659869     0.07500
C414        C  0.47246928  0.18053901  0.90028383    -0.02700
Br415      Br  0.44877762  0.18061917  0.93530482    -0.01200
Br416      Br  0.42940542  0.19185094  0.85999226    -0.01300
Br417      Br  0.04935855  0.17006323  0.88830445    -0.01300
Br418      Br  0.02936688  0.17616773  0.81273242    -0.01200
C419        C  0.38228821  0.25953834  0.76790480    -0.02400
C420        C  0.38656200  0.22198870  0.74908738     0.07300
C421        C  0.36726038  0.20532787  0.73017315    -0.02500
C422        C  0.34381569  0.22486969  0.73086676    -0.02500
C423        C  0.33939033  0.26203440  0.75007490     0.07500
C424        C  0.35889510  0.27946958  0.76831728    -0.02700
Br425      Br  0.35349459  0.32928836  0.79566456    -0.01200
Br426      Br  0.40805634  0.28275159  0.79467152    -0.01300
Br427      Br  0.31817742  0.20136803  0.70396597    -0.01300
Br428      Br  0.37318481  0.15730619  0.70127210    -0.01200
C429        C  0.24454294  0.49865515  0.97205956    -0.02400
C430        C  0.23984559  0.52504559  0.99911695     0.07300
C431        C  0.22489341  0.50893995  0.52466942    -0.02500
C432        C  0.21541742  0.46613627  0.52364421    -0.02500
C433        C  0.22129163  0.43890768  0.99744293     0.07500
C434        C  0.23567823  0.45543738  0.97147270    -0.02700
Br435      Br  0.24255507  0.41933517  0.93452177    -0.01200
Br436      Br  0.26177772  0.52278447  0.93485047    -0.01300
Br437      Br  0.19546497  0.44399043  0.55906730    -0.01300
Br438      Br  0.21849396  0.54461543  0.56199109    -0.01200
C439        C  0.00498401  0.98554892  0.97979523    -0.02400
C440        C  0.49387004  0.01669820  0.99994534     0.07300
C441        C  0.47291726  0.00500388  0.51836628    -0.02500
C442        C  0.46371407  0.96202013  0.51751181    -0.02500
C443        C  0.47577253  0.93015892  0.99890725     0.07500
C444        C  0.99614168  0.94235446  0.97950133    -0.02700
Br445      Br  0.01095555  0.90080619  0.95053182    -0.00400
Br446      Br  0.03107570  0.00284476  0.95044542    -0.01300
Br447      Br  0.43495936  0.94683957  0.54273544    -0.01300
Br448      Br  0.45731620  0.04725496  0.54601985    -0.01200
C449        C  0.34256313  0.74340713  0.98185573    -0.02400
C450        C  0.33816401  0.70400656  0.49947951     0.07300
C451        C  0.35764598  0.68399933  0.51672566    -0.02500
C452        C  0.38127808  0.70265499  0.51593761    -0.02500
C453        C  0.38553433  0.74229811  0.49872863     0.07500
C454        C  0.36612943  0.76226731  0.98142733    -0.02700
Br455      Br  0.37208102  0.81412126  0.95508427    -0.01200
Br456      Br  0.31671457  0.77150004  0.95714757    -0.01300
Br457      Br  0.40751960  0.67436934  0.53969933    -0.01300
Br458      Br  0.35180247  0.63291286  0.54392051    -0.01200
C459        C  0.00268431  0.97266614  0.77281050    -0.02400
C460        C  0.49440124  0.94395862  0.74873372     0.07300
C461        C  0.47790055  0.95932471  0.72475678    -0.02500
C462        C  0.46972716  0.00303870  0.72489022    -0.02500
C463        C  0.47756738  0.03150209  0.74935999     0.07500
C464        C  0.99411745  0.01613417  0.77332736    -0.02700
Br465      Br  0.00425645  0.05388937  0.80793295    -0.01200
Br466      Br  0.02509242  0.95207790  0.80598647    -0.01300
Br467      Br  0.44926914  0.02481052  0.68999899    -0.01300
Br468      Br  0.46769650  0.92130485  0.69034542    -0.01200
C469        C  0.00414899  0.77337415  0.59984010    -0.02400
C470        C  0.47896740  0.76899635  0.59297230     0.07300
C471        C  0.46221444  0.76279845  0.61883225    -0.02500
C472        C  0.46995498  0.76716040  0.65124098    -0.02500
C473        C  0.49478093  0.77625338  0.65795297     0.07500
C474        C  0.01203700  0.77649284  0.63225692    -0.02700
Br475      Br  0.04667716  0.78110050  0.64123630    -0.01200
Br476      Br  0.02792172  0.77861973  0.56513247    -0.01300
Br477      Br  0.44588712  0.76440860  0.68571679    -0.01300
Br478      Br  0.42861147  0.74765630  0.60977039    -0.01200
C479        C  0.01171593  0.77665929  0.86721918    -0.02400
C480        C  0.49443431  0.78261346  0.84199496     0.07300
C481        C  0.46916967  0.78224734  0.84946757    -0.02500
C482        C  0.46138940  0.77936461  0.88203226    -0.02500
C483        C  0.47873199  0.77775132  0.90745536     0.07500
C484        C  0.00392929  0.77454915  0.89989827    -0.02700
Br485      Br  0.02815753  0.77048827  0.93394761    -0.01200
Br486      Br  0.04619706  0.77087975  0.85710676    -0.01300
Br487      Br  0.42665803  0.77748495  0.89164810    -0.01300
Br488      Br  0.44487673  0.78939580  0.81569684    -0.01200
C489        C  0.22352209  0.45492555  0.73116145    -0.02400
C490        C  0.24204357  0.44226527  0.75334992     0.07300
C491        C  0.25063649  0.47253109  0.77611122    -0.02500
C492        C  0.24103536  0.51525369  0.77645972    -0.02500
C493        C  0.22319207  0.52842868  0.75348544     0.07500
C494        C  0.21434242  0.49802010  0.73096654    -0.02700
Br495      Br  0.19073183  0.51586092  0.69844327    -0.01200
Br496      Br  0.21143728  0.41387789  0.69986066    -0.01300
Br497      Br  0.25127957  0.55487122  0.80990860    -0.01300
Br498      Br  0.27463189  0.45489064  0.80814054    -0.01200
C499        C  0.25361034  0.67532723  0.65348915    -0.02400
C500        C  0.22833791  0.68149146  0.65917861     0.07300
C501        C  0.21242509  0.68844761  0.63264426    -0.02500
C502        C  0.22131660  0.68613404  0.60057794    -0.02500
C503        C  0.24644268  0.67801491  0.59473163     0.07500
C504        C  0.26267066  0.67401216  0.62139305    -0.02700
Br505      Br  0.29745498  0.66661913  0.61436741    -0.01200
Br506      Br  0.27566075  0.66470420  0.68947641    -0.01300
Br507      Br  0.19825257  0.68974225  0.56505981    -0.01300
Br508      Br  0.17820594  0.70122976  0.64017707    -0.01200
C509        C  0.25911208  0.68711336  0.88259392    -0.02400
C510        C  0.24257599  0.68324796  0.90897267     0.07300
C511        C  0.21711739  0.68388367  0.90283590    -0.02500
C512        C  0.20843347  0.68495540  0.87058691    -0.02500
C513        C  0.22507620  0.68420466  0.84421994     0.07500
C514        C  0.25047249  0.68676174  0.85037151    -0.02700
Br515      Br  0.27388365  0.68626012  0.81504896    -0.01200
Br516      Br  0.29376054  0.69405243  0.89047348    -0.01300
Br517      Br  0.17357715  0.68827283  0.86263511    -0.01300
Br518      Br  0.19382097  0.68023366  0.93819955    -0.01200
C519        C  0.09118970  0.72270699  0.72908369    -0.02400
C520        C  0.08687070  0.76041612  0.74749989     0.07300
C521        C  0.10594018  0.77794340  0.76630154    -0.02500
C522        C  0.12909299  0.75749973  0.76704106    -0.02500
C523        C  0.13334493  0.71934452  0.74894265     0.07500
C524        C  0.11432621  0.70236108  0.72966443    -0.02700
Br525      Br  0.12011584  0.65250947  0.70246973    -0.01200
Br526      Br  0.06571511  0.69949235  0.70182579    -0.01300
Br527      Br  0.15433464  0.78079454  0.79463126    -0.01300
Br528      Br  0.09989738  0.82825430  0.79294107    -0.01200
In529      In  0.70094206  0.65759464  0.25137948     1.36900
C530        C  0.71477612  0.57445032  0.25240152     0.77100
O531        O  0.69998841  0.65063752  0.19766295    -0.61400
O532        O  0.72702179  0.69253287  0.21732151    -0.52300
C533        C  0.65751364  0.69714330  0.25003069     0.69700
O534        O  0.65982946  0.65617263  0.25233946    -0.47100
C535        C  0.71596544  0.67665158  0.31083617     0.74400
O536        O  0.69244170  0.58553466  0.25101065    -0.59000
O537        O  0.72449532  0.69561224  0.28571320    -0.49100
O538        O  0.72966023  0.60589056  0.25300880    -0.55400
C539        C  0.71808297  0.67532354  0.19227729     0.84600
O540        O  0.67750661  0.71773092  0.24848808    -0.57300
O541        O  0.69940150  0.64915348  0.30525609    -0.60600
In542      In  0.51752778  0.81494988  0.24893700     1.36900
C543        C  0.50277923  0.89787840  0.24873031     0.77100
O544        O  0.51746573  0.82017050  0.19495180    -0.61400
O545        O  0.99492465  0.77159078  0.21688549    -0.52300
C546        C  0.56219950  0.78044004  0.24799471     0.69700
O547        O  0.55848956  0.82091333  0.24426798    -0.47100
C548        C  0.00285352  0.79291863  0.30849352     0.74400
O549        O  0.52512573  0.88713056  0.24984130    -0.59000
O550        O  0.99303440  0.77752811  0.28340112    -0.49100
O551        O  0.98807467  0.86615483  0.24765527    -0.55400
C552        C  0.00258554  0.78934098  0.19086235     0.84600
O553        O  0.54308622  0.75805472  0.25237007    -0.57300
O554        O  0.52021903  0.81912112  0.30283160    -0.60600
In555      In  0.95419353  0.80055031  0.00066339     1.36900
C556        C  0.96767678  0.88396496  0.00014501     0.77100
O557        O  0.95182342  0.80294017  0.05460511    -0.61400
O558        O  0.97927337  0.76245464  0.03425754    -0.52300
C559        C  0.91008699  0.76318923  0.99927058     0.69700
O560        O  0.91309005  0.80347064  0.50409133    -0.47100
C561        C  0.97030963  0.78446470  0.44124743     0.74400
O562        O  0.94553241  0.87240789  0.99756828    -0.59000
O563        O  0.97863419  0.76410975  0.46585716    -0.49100
O564        O  0.98261046  0.85281155  0.50365435    -0.55400
C565        C  0.96965068  0.77757979  0.05968754     0.84600
O566        O  0.92969562  0.74222693  0.99511908    -0.57300
O567        O  0.95398551  0.81217832  0.44752488    -0.60600
In568      In  0.76825205  0.65029649  0.00093210     1.36900
C569        C  0.75021266  0.56966040  0.50034314     0.77100
O570        O  0.76989899  0.63941290  0.05475013    -0.61400
O571        O  0.74766490  0.69122785  0.03652035    -0.52300
C572        C  0.81323401  0.68428187  0.00010502     0.69700
O573        O  0.80938322  0.64359572  0.49873165    -0.47100
C574        C  0.75207584  0.67364565  0.44213973     0.74400
O575        O  0.77295820  0.57737381  0.99819822    -0.59000
O576        O  0.74336056  0.68976392  0.46779987    -0.49100
O577        O  0.73691071  0.60307104  0.50326623    -0.55400
C578        C  0.75514487  0.66987133  0.06114346     0.84600
O579        O  0.79404525  0.70696442  0.00202249    -0.57300
O580        O  0.76932929  0.64696024  0.44689524    -0.60600
In581      In  0.95510765  0.16102251  0.24904414     1.36900
C582        C  0.96925220  0.07766477  0.24919109     0.77100
O583        O  0.95401153  0.15436659  0.19548337    -0.61400
O584        O  0.98016670  0.19831567  0.21469567    -0.52300
C585        C  0.91107217  0.20018796  0.24918936     0.69700
O586        O  0.91373489  0.15916403  0.25070946    -0.47100
C587        C  0.97116778  0.17701712  0.30839488     0.74400
O588        O  0.94693468  0.08881277  0.24758431    -0.59000
O589        O  0.97999461  0.19638247  0.28361414    -0.49100
O590        O  0.98408937  0.10912472  0.25045835    -0.55400
C591        C  0.97132158  0.18065124  0.18977030     0.84600
O592        O  0.93098694  0.22097197  0.24769679    -0.57300
O593        O  0.95374194  0.15139215  0.30250827    -0.60600
In594      In  0.76893624  0.31561616  0.25245843     1.36900
C595        C  0.75193833  0.39715272  0.25321048     0.77100
O596        O  0.76869214  0.32430033  0.19849403    -0.61400
O597        O  0.74510957  0.27624717  0.21905611    -0.52300
C598        C  0.81434646  0.28178872  0.25130466     0.69700
O599        O  0.81033606  0.32247668  0.25120717    -0.47100
C600        C  0.75400784  0.29166716  0.31174880     0.74400
O601        O  0.77461549  0.38861687  0.25210718    -0.59000
O602        O  0.74618812  0.27349816  0.28647075    -0.49100
O603        O  0.73821405  0.36404344  0.25415533    -0.55400
C604        C  0.75263615  0.29559186  0.19358382     0.84600
O605        O  0.79514682  0.25901862  0.25234534    -0.57300
O606        O  0.76964419  0.32124269  0.30633280    -0.60600
In607      In  0.52021043  0.14315577  0.99998693     1.36900
C608        C  0.50351059  0.06186133  0.50064930     0.77100
O609        O  0.52027763  0.13703096  0.05397867    -0.61400
O610        O  0.99669114  0.18433815  0.03241756    -0.52300
C611        C  0.56457672  0.17890293  0.99954706     0.69700
O612        O  0.56143671  0.13815579  0.49749098    -0.47100
C613        C  0.00623232  0.16472865  0.44014301     0.74400
O614        O  0.52603542  0.07056678  0.00396844    -0.59000
O615        O  0.99766282  0.18307892  0.46499181    -0.49100
O616        O  0.98977080  0.09479294  0.49752003    -0.55400
C617        C  0.00473152  0.16691096  0.05831929     0.84600
O618        O  0.54508804  0.20061168  0.00219272    -0.57300
O619        O  0.52227157  0.13610233  0.44619822    -0.60600
In620      In  0.70123552  0.30854580  0.00142058     1.36900
C621        C  0.71376153  0.39247771  0.49820476     0.77100
O622        O  0.69849979  0.31672282  0.05533506    -0.61400
O623        O  0.72550205  0.27340651  0.03766505    -0.52300
C624        C  0.65845727  0.26728890  0.00045106     0.69700
O625        O  0.66015223  0.30836212  0.50166868    -0.47100
C626        C  0.71786667  0.28781935  0.44296140     0.74400
O627        O  0.69165469  0.38024824  0.00001730    -0.59000
O628        O  0.72757666  0.27317913  0.46884167    -0.49100
O629        O  0.72920915  0.36186239  0.49773897    -0.55400
C630        C  0.71602385  0.29139461  0.06210126     0.84600
O631        O  0.67875200  0.24756827  0.99983925    -0.57300
O632        O  0.69938038  0.31181334  0.44729017    -0.60600
C633        C  0.59253192  0.23878184  0.48002489    -0.02400
C634        C  0.58894640  0.20023146  0.99881139     0.07300
C635        C  0.60842453  0.18326223  0.01767935    -0.02500
C636        C  0.63117142  0.20503401  0.01813358    -0.02500
C637        C  0.63465587  0.24395301  0.99968775     0.07500
C638        C  0.61527952  0.26045434  0.48035160    -0.02700
Br639      Br  0.62008912  0.31144999  0.45267380    -0.01200
Br640      Br  0.56665017  0.26130239  0.45239840    -0.01300
Br641      Br  0.65696138  0.18238227  0.04580696    -0.01300
Br642      Br  0.60362529  0.13174796  0.04473312    -0.01200
C643        C  0.75083225  0.28626770  0.10180762    -0.02400
C644        C  0.72534635  0.28552494  0.09584247     0.07300
C645        C  0.70892750  0.28264397  0.12249551    -0.02500
C646        C  0.71785170  0.28291837  0.15467350    -0.02500
C647        C  0.74325937  0.28685363  0.16046334     0.07500
C648        C  0.75968591  0.28650072  0.13391379    -0.02700
Br649      Br  0.79462478  0.28494833  0.14136570    -0.01200
Br650      Br  0.77398698  0.29096760  0.06629320    -0.01300
Br651      Br  0.69494605  0.27982872  0.19056569    -0.01300
Br652      Br  0.67404224  0.27817433  0.11530215    -0.01200
C653        C  0.72026863  0.27247123  0.35169610    -0.02400
C654        C  0.74530552  0.28095915  0.34520584     0.07300
C655        C  0.76181629  0.28385650  0.37146261    -0.02500
C656        C  0.75302696  0.28484576  0.40362219    -0.02500
C657        C  0.72776409  0.27972124  0.41000721     0.07500
C658        C  0.71167164  0.27105744  0.38406694    -0.02700
Br659      Br  0.67776468  0.25682866  0.39288068    -0.01200
Br660      Br  0.69713520  0.26546977  0.31669853    -0.01300
Br661      Br  0.77557555  0.29786102  0.43823093    -0.01300
Br662      Br  0.79675415  0.28500856  0.36360395    -0.01200
C663        C  0.01389127  0.17980029  0.11706250    -0.02400
C664        C  0.99672294  0.17960269  0.09136386     0.07300
C665        C  0.47183606  0.18878047  0.09806217    -0.02500
C666        C  0.96387526  0.19268399  0.13047448    -0.02500
C667        C  0.98066108  0.18796005  0.15630721     0.07500
C668        C  0.00590351  0.18415998  0.14943274    -0.02700
Br669      Br  0.02960661  0.18187906  0.18418872    -0.01200
Br670      Br  0.04859330  0.17463975  0.10814973    -0.01300
Br671      Br  0.42976842  0.20460439  0.13962876    -0.01300
Br672      Br  0.44803705  0.19343082  0.06353057    -0.01200
C673        C  0.96404709  0.18406256  0.36805844    -0.02400
C674        C  0.98068293  0.18181037  0.34181573     0.07300
C675        C  0.00605942  0.17861356  0.34810518    -0.02500
C676        C  0.51452160  0.17476243  0.38036878    -0.02500
C677        C  0.99770091  0.17449389  0.40659911     0.07500
C678        C  0.97246947  0.18053906  0.40028358    -0.02700
Br679      Br  0.94877757  0.18061910  0.43530473    -0.01200
Br680      Br  0.92940544  0.19185088  0.35999215    -0.01300
Br681      Br  0.54935858  0.17006318  0.38830448    -0.01300
Br682      Br  0.52936692  0.17616767  0.31273240    -0.01200
C683        C  0.88228838  0.25953833  0.26790490    -0.02400
C684        C  0.88656178  0.22198853  0.24908724     0.07300
C685        C  0.86726054  0.20532792  0.23017322    -0.02500
C686        C  0.84381558  0.22486964  0.23086675    -0.02500
C687        C  0.83939055  0.26203440  0.25007499     0.07500
C688        C  0.85889501  0.27946953  0.26831722    -0.02700
Br689      Br  0.85349465  0.32928837  0.29566454    -0.01200
Br690      Br  0.90805636  0.28275144  0.29467160    -0.01300
Br691      Br  0.81817742  0.20136793  0.20396607    -0.01300
Br692      Br  0.87318482  0.15730620  0.20127205    -0.01200
C693        C  0.74454282  0.49865512  0.47205974    -0.02400
C694        C  0.73984574  0.52504544  0.49911666     0.07300
C695        C  0.72489339  0.50894009  0.02466948    -0.02500
C696        C  0.71541738  0.46613640  0.02364421    -0.02500
C697        C  0.72129144  0.43890764  0.49744307     0.07500
C698        C  0.73567824  0.45543736  0.47147250    -0.02700
Br699      Br  0.74255506  0.41933522  0.43452173    -0.01200
Br700      Br  0.76177761  0.52278449  0.43485043    -0.01300
Br701      Br  0.69546483  0.44399065  0.05906724    -0.01300
Br702      Br  0.71849401  0.54461556  0.06199114    -0.01200
C703        C  0.50498385  0.98554899  0.47979545    -0.02400
C704        C  0.99386993  0.01669821  0.49994544     0.07300
C705        C  0.97291743  0.00500373  0.01836609    -0.02500
C706        C  0.96371408  0.96202007  0.01751180    -0.02500
C707        C  0.97577255  0.93015878  0.49890722     0.07500
C708        C  0.49614168  0.94235443  0.47950136    -0.02700
Br709      Br  0.51095545  0.90080615  0.45053193    -0.00400
Br710      Br  0.53107573  0.00284466  0.45044558    -0.01300
Br711      Br  0.93495942  0.94683946  0.04273535    -0.01300
Br712      Br  0.95731623  0.04725485  0.04601980    -0.01200
C713        C  0.84256299  0.74340734  0.48185562    -0.02400
C714        C  0.83816388  0.70400716  0.99947925     0.07300
C715        C  0.85764608  0.68399916  0.01672578    -0.02500
C716        C  0.88127805  0.70265526  0.01593744    -0.02500
C717        C  0.88553444  0.74229786  0.99872863     0.07500
C718        C  0.86612953  0.76226698  0.48142758    -0.02700
Br719      Br  0.87208100  0.81412132  0.45508445    -0.01200
Br720      Br  0.81671455  0.77150017  0.45714773    -0.01300
Br721      Br  0.90751964  0.67436946  0.03969930    -0.01300
Br722      Br  0.85180252  0.63291296  0.04392050    -0.01200
C723        C  0.50268432  0.97266622  0.27281064    -0.02400
C724        C  0.99440122  0.94395850  0.24873371     0.07300
C725        C  0.97790060  0.95932475  0.22475674    -0.02500
C726        C  0.96972722  0.00303865  0.22489020    -0.02500
C727        C  0.97756733  0.03150209  0.24935998     0.07500
C728        C  0.49411740  0.01613422  0.27332722    -0.02700
Br729      Br  0.50425650  0.05388949  0.30793286    -0.01200
Br730      Br  0.52509227  0.95207787  0.30598659    -0.01300
Br731      Br  0.94926924  0.02481058  0.18999892    -0.01300
Br732      Br  0.96769669  0.92130487  0.19034530    -0.01200
C733        C  0.50414939  0.77337415  0.09983985    -0.02400
C734        C  0.97896702  0.76899638  0.09297250     0.07300
C735        C  0.96221466  0.76279857  0.11883207    -0.02500
C736        C  0.96995463  0.76716030  0.15124113    -0.02500
C737        C  0.99478147  0.77625368  0.15795259     0.07500
C738        C  0.51203651  0.77649272  0.13225730    -0.02700
Br739      Br  0.54667710  0.78110040  0.14123643    -0.01200
Br740      Br  0.52792175  0.77861933  0.06513259    -0.01300
Br741      Br  0.94588708  0.76440851  0.18571675    -0.01300
Br742      Br  0.92861140  0.74765654  0.10977033    -0.01200
C743        C  0.51171570  0.77665940  0.36721916    -0.02400
C744        C  0.99443350  0.78261327  0.34199451     0.07300
C745        C  0.96917016  0.78224717  0.34946783    -0.02500
C746        C  0.96138874  0.77936464  0.38203190    -0.02500
C747        C  0.97873310  0.77775082  0.40745605     0.07500
C748        C  0.50392943  0.77454927  0.39989845    -0.02700
Br749      Br  0.52815749  0.77048852  0.43394770    -0.01200
Br750      Br  0.54619701  0.77087968  0.35710687    -0.01300
Br751      Br  0.92665800  0.77748489  0.39164805    -0.01300
Br752      Br  0.94487671  0.78939542  0.31569677    -0.01200
C753        C  0.72352205  0.45492551  0.23116151    -0.02400
C754        C  0.74204342  0.44226531  0.25334985     0.07300
C755        C  0.75063649  0.47253103  0.27611126    -0.02500
C756        C  0.74103530  0.51525376  0.27645973    -0.02500
C757        C  0.72319199  0.52842856  0.25348544     0.07500
C758        C  0.71434234  0.49802016  0.23096659    -0.02700
Br759      Br  0.69073169  0.51586090  0.19844340    -0.01200
Br760      Br  0.71143720  0.41387799  0.19986062    -0.01300
Br761      Br  0.75127950  0.55487128  0.30990858    -0.01300
Br762      Br  0.77463190  0.45489068  0.30814048    -0.01200
C763        C  0.75361010  0.67532726  0.15348899    -0.02400
C764        C  0.72833828  0.68149144  0.15917888     0.07300
C765        C  0.71242485  0.68844766  0.13264411    -0.02500
C766        C  0.72131687  0.68613399  0.10057810    -0.02500
C767        C  0.74644218  0.67801521  0.09473131     0.07500
C768        C  0.76267092  0.67401202  0.12139321    -0.02700
Br769      Br  0.79745495  0.66661901  0.11436742    -0.01200
Br770      Br  0.77566076  0.66470413  0.18947639    -0.01300
Br771      Br  0.69825260  0.68974248  0.06505976    -0.01300
Br772      Br  0.67820593  0.70122971  0.14017703    -0.01200
C773        C  0.75911177  0.68711323  0.38259426    -0.02400
C774        C  0.74257628  0.68324783  0.40897239     0.07300
C775        C  0.71711710  0.68388372  0.40283621    -0.02500
C776        C  0.70843357  0.68495549  0.37058682    -0.02500
C777        C  0.72507581  0.68420454  0.34422038     0.07500
C778        C  0.75047258  0.68676158  0.35037141    -0.02700
Br779      Br  0.77388357  0.68625971  0.31504908    -0.01200
Br780      Br  0.79376045  0.69405233  0.39047361    -0.01300
Br781      Br  0.67357707  0.68827309  0.36263524    -0.01300
Br782      Br  0.69382088  0.68023391  0.43819967    -0.01200
C783        C  0.59118961  0.72270667  0.22908358    -0.02400
C784        C  0.58687066  0.76041638  0.24750006     0.07300
C785        C  0.60594009  0.77794318  0.26630136    -0.02500
C786        C  0.62909301  0.75750017  0.26704127    -0.02500
C787        C  0.63334470  0.71934366  0.24894230     0.07500
C788        C  0.61432624  0.70236142  0.22966471    -0.02700
Br789      Br  0.62011581  0.65250937  0.20246983    -0.01200
Br790      Br  0.56571507  0.69949228  0.20182579    -0.01300
Br791      Br  0.65433461  0.78079474  0.29463112    -0.01300
Br792      Br  0.59989729  0.82825441  0.29294095    -0.01200
In793      In  0.70094206  0.65759466  0.75137947     1.36900
C794        C  0.71477611  0.57445026  0.75240152     0.77100
O795        O  0.69998834  0.65063746  0.69766294    -0.61400
O796        O  0.72702175  0.69253284  0.71732146    -0.52300
C797        C  0.65751351  0.69714277  0.75003070     0.69700
O798        O  0.65982946  0.65617286  0.75233947    -0.47100
C799        C  0.71596488  0.67665063  0.81083677     0.74400
O800        O  0.69244170  0.58553465  0.75101053    -0.59000
O801        O  0.72449550  0.69561255  0.78571285    -0.49100
O802        O  0.72966021  0.60589062  0.75300889    -0.55400
C803        C  0.71808315  0.67532380  0.69227737     0.84600
O804        O  0.67750669  0.71773107  0.74848808    -0.57300
O805        O  0.69940172  0.64915384  0.80525600    -0.60600
In806      In  0.51752783  0.81494994  0.74893698     1.36900
C807        C  0.50277946  0.89787842  0.74873029     0.77100
O808        O  0.51746561  0.82017032  0.69495183    -0.61400
O809        O  0.99492452  0.77159024  0.71688600    -0.52300
C810        C  0.56219957  0.78044036  0.74799471     0.69700
O811        O  0.55848962  0.82091333  0.74426809    -0.47100
C812        C  0.00285360  0.79291878  0.80849349     0.74400
O813        O  0.52512570  0.88713066  0.74984122    -0.59000
O814        O  0.99303447  0.77752809  0.78340115    -0.49100
O815        O  0.98807487  0.86615506  0.74765519    -0.55400
C816        C  0.00258669  0.78934287  0.69086138     0.84600
O817        O  0.54308624  0.75805474  0.75237002    -0.57300
O818        O  0.52021920  0.81912140  0.80283155    -0.60600
In819      In  0.95419349  0.80055026  0.50066343     1.36900
C820        C  0.96767636  0.88396515  0.50014511     0.77100
O821        O  0.95182372  0.80293959  0.55460513    -0.61400
O822        O  0.97927358  0.76245420  0.53425713    -0.52300
C823        C  0.91008714  0.76318843  0.49927060     0.69700
O824        O  0.91309007  0.80347053  0.00409117    -0.47100
C825        C  0.97031018  0.78446376  0.94124792     0.74400
O826        O  0.94553245  0.87240784  0.49756842    -0.59000
O827        O  0.97863416  0.76411011  0.96585693    -0.49100
O828        O  0.98261044  0.85281171  0.00365424    -0.55400
C829        C  0.96964957  0.77758100  0.55968838     0.84600
O830        O  0.92969553  0.74222700  0.49511908    -0.57300
O831        O  0.95398533  0.81217849  0.94752480    -0.60600
In832      In  0.76825203  0.65029640  0.50093214     1.36900
C833        C  0.75021298  0.56966044  0.00034305     0.77100
O834        O  0.76989896  0.63941287  0.55475016    -0.61400
O835        O  0.74766491  0.69122784  0.53652033    -0.52300
C836        C  0.81323362  0.68428355  0.50010498     0.69700
O837        O  0.80938321  0.64359642  0.99873159    -0.47100
C838        C  0.75207644  0.67364505  0.94213910     0.74400
O839        O  0.77295832  0.57737374  0.49819817    -0.59000
O840        O  0.74336050  0.68976428  0.96780010    -0.49100
O841        O  0.73691063  0.60307126  0.00326614    -0.55400
C842        C  0.75514489  0.66987126  0.56114357     0.84600
O843        O  0.79404546  0.70696390  0.50202237    -0.57300
O844        O  0.76932919  0.64696062  0.94689526    -0.60600
In845      In  0.95510764  0.16102251  0.74904418     1.36900
C846        C  0.96925256  0.07766497  0.74919117     0.77100
O847        O  0.95401160  0.15436673  0.69548348    -0.61400
O848        O  0.98016674  0.19831587  0.71469591    -0.52300
C849        C  0.91107181  0.20018712  0.74918937     0.69700
O850        O  0.91373491  0.15916431  0.75070950    -0.47100
C851        C  0.97116771  0.17701707  0.80839492     0.74400
O852        O  0.94693456  0.08881282  0.74758432    -0.59000
O853        O  0.97999460  0.19638243  0.78361419    -0.49100
O854        O  0.98408929  0.10912461  0.75045836    -0.55400
C855        C  0.97132128  0.18065089  0.68976992     0.84600
O856        O  0.93098708  0.22097218  0.74769679    -0.57300
O857        O  0.95374190  0.15139221  0.80250833    -0.60600
In858      In  0.76893623  0.31561614  0.75245846     1.36900
C859        C  0.75193761  0.39715227  0.75321048     0.77100
O860        O  0.76869202  0.32430007  0.69849405    -0.61400
O861        O  0.74510941  0.27624711  0.71905628    -0.52300
C862        C  0.81434648  0.28178839  0.75130472     0.69700
O863        O  0.81033604  0.32247680  0.75120716    -0.47100
C864        C  0.75400855  0.29166815  0.81174920     0.74400
O865        O  0.77461578  0.38861686  0.75210718    -0.59000
O866        O  0.74618800  0.27349781  0.78647052    -0.49100
O867        O  0.73821428  0.36404376  0.75415543    -0.55400
C868        C  0.75263644  0.29559242  0.69358368     0.84600
O869        O  0.79514682  0.25901867  0.75234541    -0.57300
O870        O  0.76964400  0.32124219  0.80633288    -0.60600
In871      In  0.52021038  0.14315577  0.49998696     1.36900
C872        C  0.50351087  0.06186117  0.00064928     0.77100
O873        O  0.52027760  0.13703128  0.55397868    -0.61400
O874        O  0.99669118  0.18433786  0.53241778    -0.52300
C875        C  0.56457635  0.17890397  0.49954710     0.69700
O876        O  0.56143674  0.13815619  0.99749092    -0.47100
C877        C  0.00623130  0.16473022  0.94014381     0.74400
O878        O  0.52603545  0.07056681  0.50396855    -0.59000
O879        O  0.99766308  0.18307833  0.96499132    -0.49100
O880        O  0.98977075  0.09479304  0.99752001    -0.55400
C881        C  0.00473101  0.16691182  0.55831914     0.84600
O882        O  0.54508818  0.20061141  0.50219270    -0.57300
O883        O  0.52227146  0.13610245  0.94619817    -0.60600
In884      In  0.70123545  0.30854580  0.50142056     1.36900
C885        C  0.71376137  0.39247770  0.99820484     0.77100
O886        O  0.69849991  0.31672251  0.55533506    -0.61400
O887        O  0.72550213  0.27340631  0.53766484    -0.52300
C888        C  0.65845746  0.26728828  0.50045108     0.69700
O889        O  0.66015233  0.30836189  0.00166866    -0.47100
C890        C  0.71786642  0.28781967  0.94296140     0.74400
O891        O  0.69165459  0.38024821  0.50001724    -0.59000
O892        O  0.72757682  0.27317905  0.96884176    -0.49100
O893        O  0.72920923  0.36186245  0.99773900    -0.55400
C894        C  0.71602326  0.29139531  0.56210147     0.84600
O895        O  0.67875185  0.24756845  0.49983917    -0.57300
O896        O  0.69938054  0.31181313  0.94729020    -0.60600
C897        C  0.59253208  0.23878161  0.98002499    -0.02400
C898        C  0.58894654  0.20023091  0.49881166     0.07300
C899        C  0.60842442  0.18326242  0.51767917    -0.02500
C900        C  0.63117148  0.20503374  0.51813369    -0.02500
C901        C  0.63465566  0.24395336  0.49968756     0.07500
C902        C  0.61527949  0.26045455  0.98035143    -0.02700
Br903      Br  0.62008917  0.31145007  0.95267385    -0.01200
Br904      Br  0.56665025  0.26130226  0.95239822    -0.01300
Br905      Br  0.65696142  0.18238210  0.54580678    -0.01300
Br906      Br  0.60362533  0.13174786  0.54473309    -0.01200
C907        C  0.75083197  0.28626758  0.60180769    -0.02400
C908        C  0.72534671  0.28552478  0.59584234     0.07300
C909        C  0.70892724  0.28264396  0.62249556    -0.02500
C910        C  0.71785184  0.28291842  0.65467345    -0.02500
C911        C  0.74325901  0.28685353  0.66046345     0.07500
C912        C  0.75968605  0.28650072  0.63391379    -0.02700
Br913      Br  0.79462472  0.28494838  0.64136576    -0.01200
Br914      Br  0.77398695  0.29096737  0.56629323    -0.01300
Br915      Br  0.69494597  0.27982880  0.69056565    -0.01300
Br916      Br  0.67404221  0.27817440  0.61530214    -0.01200
C917        C  0.72026896  0.27247121  0.85169617    -0.02400
C918        C  0.74530507  0.28095868  0.84520572     0.07300
C919        C  0.76181662  0.28385641  0.87146266    -0.02500
C920        C  0.75302681  0.28484555  0.90362222    -0.02500
C921        C  0.72776445  0.27972117  0.91000724     0.07500
C922        C  0.71167148  0.27105731  0.88406698    -0.02700
Br923      Br  0.67776472  0.25682871  0.89288074    -0.01200
Br924      Br  0.69713525  0.26546952  0.81669857    -0.01300
Br925      Br  0.77557564  0.29786083  0.93823092    -0.01300
Br926      Br  0.79675420  0.28500832  0.86360396    -0.01200
C927        C  0.01389111  0.17980032  0.61706265    -0.02400
C928        C  0.99672325  0.17960240  0.59136392     0.07300
C929        C  0.47183617  0.18878042  0.59806244    -0.02500
C930        C  0.96387523  0.19268388  0.63047438    -0.02500
C931        C  0.98066110  0.18796007  0.65630755     0.07500
C932        C  0.00590348  0.18415999  0.64943269    -0.02700
Br933      Br  0.02960655  0.18187914  0.68418882    -0.01200
Br934      Br  0.04859328  0.17463982  0.60814983    -0.01300
Br935      Br  0.42976838  0.20460444  0.63962883    -0.01300
Br936      Br  0.44803697  0.19343057  0.56353067    -0.01200
C937        C  0.96404722  0.18406246  0.86805839    -0.02400
C938        C  0.98068276  0.18181035  0.84181588     0.07300
C939        C  0.00605953  0.17861349  0.84810506    -0.02500
C940        C  0.51452167  0.17476235  0.88036883    -0.02500
C941        C  0.99770163  0.17449342  0.90659865     0.07500
C942        C  0.97246914  0.18053901  0.90028382    -0.02700
Br943      Br  0.94877761  0.18061915  0.93530481    -0.01200
Br944      Br  0.92940542  0.19185091  0.85999226    -0.01300
Br945      Br  0.54935854  0.17006323  0.88830443    -0.01300
Br946      Br  0.52936686  0.17616773  0.81273241    -0.01200
C947        C  0.88228829  0.25953824  0.76790481    -0.02400
C948        C  0.88656196  0.22198880  0.74908744     0.07300
C949        C  0.86726040  0.20532773  0.73017321    -0.02500
C950        C  0.84381562  0.22486959  0.73086684    -0.02500
C951        C  0.83939047  0.26203446  0.75007506     0.07500
C952        C  0.85889506  0.27946951  0.76831729    -0.02700
Br953      Br  0.85349461  0.32928835  0.79566460    -0.01200
Br954      Br  0.90805639  0.28275159  0.79467148    -0.01300
Br955      Br  0.81817736  0.20136796  0.70396615    -0.01300
Br956      Br  0.87318474  0.15730604  0.70127220    -0.01200
C957        C  0.74454286  0.49865528  0.97205966    -0.02400
C958        C  0.73984560  0.52504548  0.99911684     0.07300
C959        C  0.72489332  0.50893989  0.52466957    -0.02500
C960        C  0.71541745  0.46613636  0.52364410    -0.02500
C961        C  0.72129153  0.43890785  0.99744301     0.07500
C962        C  0.73567818  0.45543738  0.97147262    -0.02700
Br963      Br  0.74255499  0.41933532  0.93452174    -0.01200
Br964      Br  0.76177766  0.52278453  0.93485049    -0.01300
Br965      Br  0.69546492  0.44399045  0.55906726    -0.01300
Br966      Br  0.71849391  0.54461544  0.56199108    -0.01200
C967        C  0.50498393  0.98554898  0.97979531    -0.02400
C968        C  0.99386987  0.01669825  0.99994545     0.07300
C969        C  0.97291731  0.00500377  0.51836619    -0.02500
C970        C  0.96371396  0.96202015  0.51751191    -0.02500
C971        C  0.97577253  0.93015888  0.99890718     0.07500
C972        C  0.49614168  0.94235449  0.97950135    -0.02700
Br973      Br  0.51095548  0.90080621  0.95053184    -0.00400
Br974      Br  0.53107565  0.00284477  0.95044539    -0.01300
Br975      Br  0.93495931  0.94683953  0.54273542    -0.01300
Br976      Br  0.95731615  0.04725493  0.54601983    -0.01200
C977        C  0.84256304  0.74340694  0.98185578    -0.02400
C978        C  0.83816408  0.70400619  0.49947962     0.07300
C979        C  0.85764600  0.68399945  0.51672556    -0.02500
C980        C  0.88127811  0.70265482  0.51593766    -0.02500
C981        C  0.88553436  0.74229825  0.49872853     0.07500
C982        C  0.86612944  0.76226732  0.98142730    -0.02700
Br983      Br  0.87208095  0.81412125  0.95508426    -0.01200
Br984      Br  0.81671451  0.77150003  0.95714757    -0.01300
Br985      Br  0.90751965  0.67436933  0.53969932    -0.01300
Br986      Br  0.85180254  0.63291282  0.54392051    -0.01200
C987        C  0.50268440  0.97266617  0.77281065    -0.02400
C988        C  0.99440148  0.94395862  0.74873400     0.07300
C989        C  0.97790049  0.95932466  0.72475660    -0.02500
C990        C  0.96972730  0.00303865  0.72489040    -0.02500
C991        C  0.97756715  0.03150200  0.74935976     0.07500
C992        C  0.49411734  0.01613421  0.77332715    -0.02700
Br993      Br  0.50425652  0.05388939  0.80793289    -0.01200
Br994      Br  0.52509237  0.95207788  0.80598647    -0.01300
Br995      Br  0.94926924  0.02481049  0.68999894    -0.01300
Br996      Br  0.96769661  0.92130482  0.69034540    -0.01200
C997        C  0.50414924  0.77337420  0.59983999    -0.02400
C998        C  0.97896782  0.76899630  0.59297201     0.07300
C999        C  0.96221420  0.76279837  0.61883238    -0.02500
C1000       C  0.96995519  0.76716035  0.65124087    -0.02500
C1001       C  0.99478064  0.77625322  0.65795312     0.07500
C1002       C  0.51203680  0.77649281  0.63225706    -0.02700
Br1003     Br  0.54667716  0.78110051  0.64123635    -0.01200
Br1004     Br  0.52792175  0.77861971  0.56513251    -0.01300
Br1005     Br  0.94588717  0.76440828  0.68571681    -0.01300
Br1006     Br  0.92861145  0.74765631  0.60977041    -0.01200
C1007       C  0.51171545  0.77665937  0.86721899    -0.02400
C1008       C  0.99443360  0.78261330  0.84199462     0.07300
C1009       C  0.96917016  0.78224727  0.84946773    -0.02500
C1010       C  0.96138896  0.77936463  0.88203202    -0.02500
C1011       C  0.97873281  0.77775089  0.90745575     0.07500
C1012       C  0.50392973  0.77454911  0.89989847    -0.02700
Br1013     Br  0.52815750  0.77048827  0.93394761    -0.01200
Br1014     Br  0.54619703  0.77087974  0.85710676    -0.01300
Br1015     Br  0.92665804  0.77748495  0.89164797    -0.01300
Br1016     Br  0.94487679  0.78939581  0.81569679    -0.01200
C1017       C  0.72352198  0.45492544  0.73116132    -0.02400
C1018       C  0.74204377  0.44226546  0.75335012     0.07300
C1019       C  0.75063643  0.47253103  0.77611103    -0.02500
C1020       C  0.74103538  0.51525377  0.77645981    -0.02500
C1021       C  0.72319193  0.52842856  0.75348534     0.07500
C1022       C  0.71434243  0.49802013  0.73096666    -0.02700
Br1023     Br  0.69073178  0.51586088  0.69844329    -0.01200
Br1024     Br  0.71143724  0.41387787  0.69986069    -0.01300
Br1025     Br  0.75127952  0.55487121  0.80990862    -0.01300
Br1026     Br  0.77463201  0.45489075  0.80814038    -0.01200
C1027       C  0.75361016  0.67532731  0.65348903    -0.02400
C1028       C  0.72833818  0.68149148  0.65917889     0.07300
C1029       C  0.71242490  0.68844768  0.63264413    -0.02500
C1030       C  0.72131687  0.68613398  0.60057815    -0.02500
C1031       C  0.74644221  0.67801525  0.59473129     0.07500
C1032       C  0.76267092  0.67401208  0.62139327    -0.02700
Br1033     Br  0.79745496  0.66661912  0.61436741    -0.01200
Br1034     Br  0.77566078  0.66470422  0.68947642    -0.01300
Br1035     Br  0.69825260  0.68974227  0.56505980    -0.01300
Br1036     Br  0.67820592  0.70122975  0.64017705    -0.01200
C1037       C  0.75911208  0.68711336  0.88259396    -0.02400
C1038       C  0.74257593  0.68324799  0.90897278     0.07300
C1039       C  0.71711739  0.68388368  0.90283594    -0.02500
C1040       C  0.70843337  0.68495540  0.87058704    -0.02500
C1041       C  0.72507631  0.68420471  0.84421989     0.07500
C1042       C  0.75047239  0.68676166  0.85037164    -0.02700
Br1043     Br  0.77388363  0.68625981  0.81504907    -0.01200
Br1044     Br  0.79376051  0.69405244  0.89047355    -0.01300
Br1045     Br  0.67357713  0.68827285  0.86263518    -0.01300
Br1046     Br  0.69382095  0.68023366  0.93819965    -0.01200
C1047       C  0.59118965  0.72270685  0.72908363    -0.02400
C1048       C  0.58687068  0.76041628  0.74750000     0.07300
C1049       C  0.60594012  0.77794331  0.76630146    -0.02500
C1050       C  0.62909300  0.75750004  0.76704126    -0.02500
C1051       C  0.63334476  0.71934396  0.74894243     0.07500
C1052       C  0.61432626  0.70236137  0.72966461    -0.02700
Br1053     Br  0.62011588  0.65250955  0.70246972    -0.01200
Br1054     Br  0.56571510  0.69949233  0.70182581    -0.01300
Br1055     Br  0.65433459  0.78079459  0.79463130    -0.01300
Br1056     Br  0.59989734  0.82825444  0.79294100    -0.01200
loop_ 
_geom_bond_atom_site_label_1 
_geom_bond_atom_site_label_2 
_geom_bond_distance 
_geom_bond_site_symmetry_2 
_ccdc_geom_bond_type 
In1           O3   2.225       .  S
In1           O4   2.252       .  S
In1          O12   2.243       .  S
In1           O6   2.244       .  S
In1           O8   2.255       .  S
In1           O9   2.252       .  S
In1          O10   2.227       .  S
In1          O13   2.229       .  S
C2            O8   1.266       .  A
C2           O10   1.261       .  A
C2          C229   1.482       .  S
O3           C11   1.261       .  A
O4           C11   1.265       .  A
C5           O12   1.261       .  A
C5            O6   1.262       .  A
C5          C259   1.484       .  S
C7            O9   1.265       .  A
C7           O13   1.260       .  A
C7          C249   1.484       .  S
C11         C236   1.480       .  S
In14         O16   2.225       .  S
In14         O25   2.233       .  S
In14         O19   2.250       .  S
In14         O21   2.250       .  S
In14         O26   2.229       .  S
In14        O545   2.257   1_455  S
In14        O550   2.246   1_455  S
In14        O551   2.245   1_455  S
C15          O21   1.264       .  A
C15         O551   1.262   1_455  A
C15         C724   1.483   1_455  S
O16         C552   1.259       .  A
O17        In542   2.257       .  S
O17          C24   1.263       .  A
C18          O25   1.259       .  A
C18          O19   1.262       .  A
C18         C256   1.479       .  S
C20          O22   1.263       .  A
C20         O554   1.261       .  A
C20         C216   1.481       .  S
O22        In542   2.246       .  S
O23        In542   2.245       .  S
O23         C543   1.262       .  A
C24         O544   1.259       .  A
C24         C209   1.483       .  S
O26         C548   1.261       .  A
In27         O29   2.226       .  S
In27         O30   2.258       .  S
In27         O38   2.246   1_554  S
In27         O34   2.251   1_554  S
In27        O296   2.249       .  S
In27        O299   2.262   1_554  S
In27        O300   2.234       .  S
In27        O303   2.210   1_554  S
C28          O34   1.265   1_554  A
C28         O300   1.261       .  A
C28         C443   1.482   1_554  S
O29          C37   1.260       .  A
O30          C37   1.264       .  A
C31          O38   1.260       .  A
C31         O296   1.263   1_556  A
C31         C189   1.486       .  S
O32        In291   2.249       .  S
O32         C295   1.263       .  A
C33          O35   1.265       .  A
C33          O39   1.259       .  A
C33         C219   1.481       .  S
O35        In291   2.262       .  S
O36        In291   2.234       .  S
O36         C292   1.261       .  A
C37         C206   1.482       .  S
O39        In291   2.210       .  S
In40         O42   2.236       .  S
In40         O43   2.243       .  S
In40         O51   2.236       .  S
In40         O47   2.252   1_554  S
In40        O309   2.256   1_554  S
In40        O312   2.262   1_554  S
In40        O313   2.241       .  S
In40        O316   2.229   1_554  S
C41          O49   1.261       .  A
C41         O311   1.266       .  A
C41         C166   1.480       .  S
O42          C50   1.262       .  A
O43          C50   1.265       .  A
C44          O51   1.259       .  A
C44         O309   1.266   1_554  A
C44         C186   1.489   1_554  S
O45        In304   2.256       .  S
O45         C308   1.266       .  A
C46          O48   1.265       .  A
C46          O52   1.260       .  A
C46         C246   1.486       .  S
O47         C305   1.266   1_556  A
O48        In304   2.262       .  S
O49        In304   2.241       .  S
C50         C239   1.485       .  S
O52        In304   2.229       .  S
In53         O55   2.218       .  S
In53         O56   2.260       .  S
In53         O64   2.258       .  S
In53         O58   2.259       .  S
In53         O60   2.257       .  S
In53         O61   2.260       .  S
In53         O62   2.241       .  S
In53         O65   2.216       .  S
C54          O60   1.266       .  A
C54          O62   1.261       .  A
C54         C199   1.484       .  S
O55          C63   1.260       .  A
O56          C63   1.265       .  A
C57          O64   1.261       .  A
C57          O58   1.265       .  A
C57         C156   1.494       .  S
C59          O61   1.265       .  A
C59          O65   1.260       .  A
C59         C146   1.481       .  S
C63         C139   1.481       .  S
In66         O68   2.232       .  S
In66         O69   2.259       .  S
In66         O77   2.246       .  S
In66         O71   2.270       .  S
In66         O73   2.256       .  S
In66         O74   2.257       .  S
In66         O75   2.239       .  S
In66         O78   2.227       .  S
C67          O73   1.266       .  A
C67          O75   1.261       .  A
C67         C226   1.483       .  S
O68          C76   1.261       .  A
O69          C76   1.263       .  A
C70          O77   1.259       .  A
C70          O71   1.264       .  A
C70         C159   1.495       .  S
C72          O74   1.264       .  A
C72          O78   1.261       .  A
C72         C126   1.487       .  S
C76         C119   1.486       .  S
In79         O81   2.227   1_556  S
In79         O90   2.226   1_556  S
In79         O86   2.248   1_556  S
In79        O610   2.251   1_456  S
In79        O348   2.257       .  S
In79        O879   2.243   1_455  S
In79        O880   2.230   1_455  S
In79        O355   2.230       .  S
C80         O350   1.266       .  A
C80         O616   1.261   1_455  A
C80         C704   1.480   1_455  S
O81         C617   1.262       .  A
O82        In607   2.251   1_554  S
O82          C89   1.263       .  A
C83          O90   1.259   1_556  A
C83         O348   1.264       .  A
C83         C106   1.482       .  S
O84        In343   2.257       .  S
O84         C347   1.264       .  A
C85          O87   1.264       .  A
C85         O619   1.261       .  A
C85         C149   1.484       .  S
O86         C344   1.266       .  A
O87        In871   2.243       .  S
O88        In871   2.230       .  S
O88         C608   1.261       .  A
C89         O609   1.262       .  A
C89         C136   1.485       .  S
O91        In343   2.230       .  S
O91         C613   1.260       .  A
In92         O94   2.242       .  S
In92         O95   2.256       .  S
In92        O103   2.237   1_554  S
In92         O99   2.256       .  S
In92        O361   2.242       .  S
In92        O364   2.253   1_554  S
In92        O365   2.239   1_554  S
In92        O368   2.231   1_554  S
C93         O101   1.261       .  A
C93         O363   1.265       .  A
C93         C169   1.480       .  S
O94         C102   1.260       .  A
O95         C102   1.264       .  A
C96         O103   1.261   1_554  A
C96         O361   1.263       .  A
C96         C109   1.484   1_554  S
O97        In356   2.242       .  S
O97         C360   1.263       .  A
C98         O100   1.266       .  A
C98         O104   1.262       .  A
C98         C129   1.483       .  S
O99         C357   1.265   1_554  A
O100       In356   2.253       .  S
O101       In356   2.239       .  S
C102        C116   1.488       .  S
O104       In356   2.231       .  S
C105        C110   1.408       .  A
C105        C370   1.413       .  A
C105       Br112   1.935       .  S
C106        C107   1.412   1_556  A
C106        C369   1.413       .  A
C107        C108   1.410       .  A
C107       Br114   1.932       .  S
C108        C109   1.414   1_554  A
C108       Br113   1.934       .  S
C109        C374   1.413       .  A
C110        C373   1.413       .  A
C110       Br111   1.934       .  S
C115        C116   1.413       .  A
C115        C120   1.408       .  A
C115       Br122   1.933       .  S
C116        C117   1.416       .  A
C117        C118   1.412       .  A
C117       Br124   1.933       .  S
C118        C119   1.413       .  A
C118       Br123   1.934       .  S
C119        C120   1.412       .  A
C120       Br121   1.933       .  S
C125        C126   1.415       .  A
C125        C130   1.411       .  A
C125       Br132   1.933       .  S
C126        C127   1.413       .  A
C127        C128   1.407       .  A
C127       Br134   1.933       .  S
C128        C129   1.411       .  A
C128       Br133   1.932       .  S
C129        C130   1.413       .  A
C130       Br131   1.933       .  S
C135        C136   1.415       .  A
C135        C140   1.409       .  A
C135       Br142   1.935       .  S
C136        C665   1.414       .  A
C137        C664   1.414       .  A
C137        C666   1.409       .  A
C137       Br144   1.931       .  S
C138        C139   1.411       .  A
C138        C665   1.409       .  A
C138       Br671   1.934       .  S
C139        C140   1.411       .  A
C140       Br141   1.932       .  S
Br143       C666   1.934       .  S
C145        C146   1.412       .  A
C145        C150   1.407       .  A
C145       Br152   1.934       .  S
C146        C147   1.413       .  A
C147        C676   1.410       .  A
C147       Br682   1.933       .  S
C148        C675   1.410       .  A
C148        C677   1.415   1_455  A
C148       Br153   1.935       .  S
C149        C150   1.414       .  A
C149        C676   1.415       .  A
C150       Br151   1.934       .  S
Br154       C675   1.933       .  S
C155        C156   1.416       .  A
C155        C160   1.415       .  A
C155       Br162   1.932       .  S
C156        C157   1.412       .  A
C157        C158   1.412       .  A
C157       Br164   1.933       .  S
C158        C159   1.417       .  A
C158       Br163   1.934       .  S
C159        C160   1.414       .  A
C160       Br161   1.933       .  S
C165        C166   1.410       .  A
C165        C170   1.410       .  A
C165       Br172   1.931       .  S
C166        C431   1.412       .  A
C167        C168   1.410       .  A
C167        C430   1.412   1_554  A
C167       Br174   1.931       .  S
C168        C433   1.410   1_554  A
C168       Br173   1.931       .  S
C169        C170   1.411       .  A
C169        C432   1.410       .  A
C170       Br171   1.931       .  S
C175        C180   1.408   1_455  A
C175        C704   1.410   1_465  A
C175       Br182   1.933   1_565  S
C176        C608   1.480       .  S
C176        C703   1.410   1_545  A
C176        C441   1.413       .  A
C177        C178   1.410   1_545  A
C177        C440   1.413   1_554  A
C177       Br184   1.933       .  S
C178        C443   1.412   1_554  A
C178       Br183   1.932       .  S
C179        C292   1.482       .  S
C179        C442   1.412       .  A
C179        C708   1.414       .  A
C180        C707   1.414       .  A
C180       Br181   1.934   1_655  S
C185        C190   1.410       .  A
C185        C450   1.417       .  A
C185       Br192   1.934       .  S
C186        C187   1.413   1_556  A
C186        C449   1.417       .  A
C187        C188   1.411       .  A
C187       Br194   1.933       .  S
C188        C189   1.414   1_554  A
C188       Br193   1.932       .  S
C189        C454   1.411       .  A
C190        C453   1.411       .  A
C190       Br191   1.934       .  S
C195        C200   1.411   1_465  A
C195        C724   1.411   1_455  A
C195       Br202   1.933       .  S
C196        C543   1.483       .  S
C196        C197   1.412       .  A
C196        C723   1.411       .  A
C197        C198   1.410   1_565  A
C197       Br204   1.932       .  S
C198        C199   1.411       .  A
C198       Br203   1.931       .  S
C199        C728   1.414       .  A
C200        C727   1.414       .  A
C200       Br201   1.932   1_655  S
C205        C210   1.408       .  A
C205        C734   1.411   1_455  A
C205       Br212   1.932       .  S
C206        C207   1.412       .  A
C206        C733   1.411       .  A
C207        C208   1.409       .  A
C207       Br214   1.931       .  S
C208        C209   1.412       .  A
C208       Br213   1.932       .  S
C209        C738   1.414       .  A
C210        C737   1.414   1_455  A
C210       Br211   1.933       .  S
C215        C220   1.410       .  A
C215        C744   1.414   1_455  A
C215       Br222   1.935       .  S
C216        C217   1.412       .  A
C216        C743   1.414       .  A
C217        C218   1.406       .  A
C217       Br224   1.933       .  S
C218        C219   1.413       .  A
C218       Br223   1.936       .  S
C219        C748   1.413       .  A
C220        C747   1.413   1_455  A
C220       Br221   1.932       .  S
C225        C226   1.414       .  A
C225        C230   1.411       .  A
C225       Br232   1.933       .  S
C226        C227   1.410       .  A
C227        C228   1.409       .  A
C227       Br234   1.931       .  S
C228        C229   1.413       .  A
C228       Br233   1.934       .  S
C229        C230   1.411       .  A
C230       Br231   1.932       .  S
C235        C236   1.411       .  A
C235        C240   1.410       .  A
C235       Br242   1.934       .  S
C236        C237   1.410       .  A
C237        C238   1.408       .  A
C237       Br244   1.933       .  S
C238        C239   1.414       .  A
C238       Br243   1.933       .  S
C239        C240   1.416       .  A
C240       Br241   1.933       .  S
C245        C246   1.413       .  A
C245        C250   1.409       .  A
C245       Br252   1.932       .  S
C246        C247   1.413       .  A
C247        C248   1.410       .  A
C247       Br254   1.932       .  S
C248        C249   1.414       .  A
C248       Br253   1.933       .  S
C249        C250   1.412       .  A
C250       Br251   1.933       .  S
C255        C256   1.411       .  A
C255        C260   1.408       .  A
C255       Br262   1.932       .  S
C256        C257   1.410       .  A
C257        C258   1.410       .  A
C257       Br264   1.934       .  S
C258        C259   1.415       .  A
C258       Br263   1.932       .  S
C259        C260   1.413       .  A
C260       Br261   1.933       .  S
In265       O267   2.225       .  S
In265       O268   2.252       .  S
In265       O276   2.243       .  S
In265       O270   2.244       .  S
In265       O272   2.255       .  S
In265       O273   2.252       .  S
In265       O274   2.227       .  S
In265       O277   2.229       .  S
C266        O272   1.266       .  A
C266        O274   1.261       .  A
C266        C493   1.482       .  S
O267        C275   1.261       .  A
O268        C275   1.265       .  A
C269        O276   1.261       .  A
C269        O270   1.262       .  A
C269        C523   1.484       .  S
C271        O273   1.265       .  A
C271        O277   1.260       .  A
C271        C513   1.484       .  S
C275        C500   1.480       .  S
In278       O280   2.225       .  S
In278       O809   2.257   1_455  S
In278       O289   2.233       .  S
In278       O283   2.250       .  S
In278       O285   2.250       .  S
In278       O814   2.246   1_455  S
In278       O815   2.245   1_455  S
In278       O290   2.229       .  S
C279        O285   1.264       .  A
C279        O815   1.262   1_455  A
C279        C988   1.483   1_455  S
O280        C816   1.259       .  A
O281       In806   2.257       .  S
O281        C288   1.263       .  A
C282        O289   1.259       .  A
C282        O283   1.262       .  A
C282        C520   1.479       .  S
C284        O286   1.263       .  A
C284        O818   1.261       .  A
C284        C480   1.481       .  S
O286       In806   2.246       .  S
O287       In806   2.245       .  S
O287        C807   1.262       .  A
C288        O808   1.259       .  A
C288        C473   1.483       .  S
O290        C812   1.261       .  A
In291       O293   2.226       .  S
In291       O294   2.258       .  S
In291       O302   2.246       .  S
In291       O298   2.251       .  S
C292        O298   1.265       .  A
O293        C301   1.260       .  A
O294        C301   1.265       .  A
C295        O302   1.260       .  A
C295        C453   1.486       .  S
C297        O299   1.265       .  A
C297        O303   1.259       .  A
C297        C483   1.481       .  S
C301        C470   1.482       .  S
In304       O306   2.236       .  S
In304       O307   2.243       .  S
In304       O315   2.236       .  S
In304       O311   2.252       .  S
C305        O313   1.261       .  A
C305        C430   1.480   1_554  S
O306        C314   1.262       .  A
O307        C314   1.265       .  A
C308        O315   1.259       .  A
C308        C450   1.489       .  S
C310        O312   1.265       .  A
C310        O316   1.260       .  A
C310        C510   1.486       .  S
C314        C503   1.485       .  S
In317       O319   2.218       .  S
In317       O320   2.260       .  S
In317       O328   2.258       .  S
In317       O322   2.259       .  S
In317       O324   2.257       .  S
In317       O325   2.260       .  S
In317       O326   2.241       .  S
In317       O329   2.216       .  S
C318        O324   1.266       .  A
C318        O326   1.261       .  A
C318        C463   1.484       .  S
O319        C327   1.260       .  A
O320        C327   1.265       .  A
C321        O328   1.261       .  A
C321        O322   1.265       .  A
C321        C420   1.494       .  S
C323        O325   1.265       .  A
C323        O329   1.260       .  A
C323        C410   1.481       .  S
C327        C403   1.481       .  S
In330       O332   2.232       .  S
In330       O333   2.259       .  S
In330       O341   2.246       .  S
In330       O335   2.270       .  S
In330       O337   2.256       .  S
In330       O338   2.257       .  S
In330       O339   2.239       .  S
In330       O342   2.227       .  S
C331        O337   1.266       .  A
C331        O339   1.261       .  A
C331        C490   1.483       .  S
O332        C340   1.261       .  A
O333        C340   1.263       .  A
C334        O341   1.259       .  A
C334        O335   1.264       .  A
C334        C423   1.495       .  S
C336        O338   1.264       .  A
C336        O342   1.261       .  A
C336        C390   1.487       .  S
C340        C383   1.486       .  S
In343       O345   2.227       .  S
In343       O874   2.251   1_455  S
In343       O354   2.226       .  S
In343       O350   2.248       .  S
In343       O615   2.243   1_455  S
In343       O616   2.230   1_455  S
C344        O880   1.261   1_454  A
C344        C968   1.480   1_454  S
O345        C881   1.262       .  A
O346       In871   2.251       .  S
O346        C353   1.263       .  A
C347        O354   1.259       .  A
C347        C370   1.482       .  S
C349        O351   1.264       .  A
C349        O883   1.261       .  A
C349        C413   1.484       .  S
O351       In607   2.243       .  S
O352       In607   2.230       .  S
O352        C872   1.261   1_556  A
C353        O873   1.262       .  A
C353        C400   1.485       .  S
O355        C877   1.261       .  A
In356       O358   2.242       .  S
In356       O359   2.256       .  S
In356       O367   2.237       .  S
In356       O363   2.256       .  S
C357        O365   1.261       .  A
C357        C433   1.480       .  S
O358        C366   1.260       .  A
O359        C366   1.264       .  A
C360        O367   1.261       .  A
C360        C373   1.484       .  S
C362        O364   1.266       .  A
C362        O368   1.262       .  A
C362        C393   1.483       .  S
C366        C380   1.488       .  S
C369        C374   1.408       .  A
C369       Br376   1.935       .  S
C370        C371   1.412       .  A
C371        C372   1.410       .  A
C371       Br378   1.932       .  S
C372        C373   1.414       .  A
C372       Br377   1.934       .  S
C374       Br375   1.934       .  S
C379        C380   1.413       .  A
C379        C384   1.408       .  A
C379       Br386   1.933       .  S
C380        C381   1.416       .  A
C381        C382   1.412       .  A
C381       Br388   1.933       .  S
C382        C383   1.413       .  A
C382       Br387   1.934       .  S
C383        C384   1.412       .  A
C384       Br385   1.933       .  S
C389        C390   1.415       .  A
C389        C394   1.411       .  A
C389       Br396   1.933       .  S
C390        C391   1.413       .  A
C391        C392   1.407       .  A
C391       Br398   1.933       .  S
C392        C393   1.411       .  A
C392       Br397   1.932       .  S
C393        C394   1.413       .  A
C394       Br395   1.933       .  S
C399        C400   1.415       .  A
C399        C404   1.409       .  A
C399       Br406   1.935       .  S
C400        C929   1.414       .  A
C401        C928   1.414       .  A
C401        C930   1.409       .  A
C401       Br408   1.931       .  S
C402        C929   1.409       .  A
C402        C403   1.411       .  A
C402       Br935   1.934       .  S
C403        C404   1.411       .  A
C404       Br405   1.932       .  S
Br407       C930   1.934       .  S
C409        C410   1.412       .  A
C409        C414   1.407       .  A
C409       Br416   1.934       .  S
C410        C411   1.413       .  A
C411        C940   1.410       .  A
C411       Br946   1.933       .  S
C412        C939   1.410       .  A
C412        C941   1.415   1_455  A
C412       Br417   1.935       .  S
C413        C940   1.415       .  A
C413        C414   1.413       .  A
C414       Br415   1.934       .  S
Br418       C939   1.933       .  S
C419        C420   1.416       .  A
C419        C424   1.415       .  A
C419       Br426   1.932       .  S
C420        C421   1.412       .  A
C421        C422   1.412       .  A
C421       Br428   1.933       .  S
C422        C423   1.417       .  A
C422       Br427   1.934       .  S
C423        C424   1.414       .  A
C424       Br425   1.933       .  S
C429        C430   1.410       .  A
C429        C434   1.410       .  A
C429       Br436   1.931       .  S
C431        C432   1.410       .  A
C431       Br438   1.931       .  S
C432       Br437   1.931       .  S
C433        C434   1.411       .  A
C434       Br435   1.931       .  S
C439        C968   1.410   1_465  A
C439        C444   1.408   1_455  A
C439       Br446   1.933   1_565  S
C440        C872   1.480   1_556  S
C440        C967   1.410   1_545  A
C441        C442   1.410   1_545  A
C441       Br448   1.933       .  S
C442       Br447   1.932       .  S
C443        C972   1.414       .  A
C444        C971   1.414       .  A
C444       Br445   1.934   1_655  S
C449        C454   1.410       .  A
C449       Br456   1.934       .  S
C450        C451   1.413       .  A
C451        C452   1.411       .  A
C451       Br458   1.934       .  S
C452        C453   1.414       .  A
C452       Br457   1.932       .  S
C454       Br455   1.934       .  S
C459        C988   1.411   1_455  A
C459        C464   1.411   1_465  A
C459       Br466   1.933       .  S
C460        C807   1.483       .  S
C460        C987   1.411       .  A
C460        C461   1.412       .  A
C461        C462   1.410   1_565  A
C461       Br468   1.932       .  S
C462        C463   1.411       .  A
C462       Br467   1.931       .  S
C463        C992   1.414       .  A
C464        C991   1.414       .  A
C464       Br465   1.932   1_655  S
C469        C998   1.411   1_455  A
C469        C474   1.408       .  A
C469       Br476   1.932       .  S
C470        C997   1.411       .  A
C470        C471   1.412       .  A
C471        C472   1.409       .  A
C471       Br478   1.931       .  S
C472        C473   1.412       .  A
C472       Br477   1.932       .  S
C473       C1002   1.414       .  A
C474       C1001   1.414   1_455  A
C474       Br475   1.933       .  S
C479       C1008   1.414   1_455  A
C479        C484   1.410       .  A
C479       Br486   1.935       .  S
C480       C1007   1.414       .  A
C480        C481   1.412       .  A
C481        C482   1.406       .  A
C481       Br488   1.933       .  S
C482        C483   1.413       .  A
C482       Br487   1.936       .  S
C483       C1012   1.413       .  A
C484       C1011   1.413   1_455  A
C484       Br485   1.932       .  S
C489        C490   1.414       .  A
C489        C494   1.411       .  A
C489       Br496   1.933       .  S
C490        C491   1.410       .  A
C491        C492   1.409       .  A
C491       Br498   1.931       .  S
C492        C493   1.413       .  A
C492       Br497   1.934       .  S
C493        C494   1.411       .  A
C494       Br495   1.932       .  S
C499        C500   1.411       .  A
C499        C504   1.410       .  A
C499       Br506   1.934       .  S
C500        C501   1.410       .  A
C501        C502   1.408       .  A
C501       Br508   1.933       .  S
C502        C503   1.414       .  A
C502       Br507   1.933       .  S
C503        C504   1.416       .  A
C504       Br505   1.933       .  S
C509        C510   1.413       .  A
C509        C514   1.409       .  A
C509       Br516   1.932       .  S
C510        C511   1.413       .  A
C511        C512   1.410       .  A
C511       Br518   1.932       .  S
C512        C513   1.414       .  A
C512       Br517   1.933       .  S
C513        C514   1.412       .  A
C514       Br515   1.933       .  S
C519        C520   1.411       .  A
C519        C524   1.408       .  A
C519       Br526   1.932       .  S
C520        C521   1.410       .  A
C521        C522   1.410       .  A
C521       Br528   1.934       .  S
C522        C523   1.415       .  A
C522       Br527   1.932       .  S
C523        C524   1.413       .  A
C524       Br525   1.933       .  S
In529       O531   2.225       .  S
In529       O532   2.252       .  S
In529       O540   2.243       .  S
In529       O534   2.244       .  S
In529       O536   2.255       .  S
In529       O537   2.252       .  S
In529       O538   2.227       .  S
In529       O541   2.229       .  S
C530        O536   1.266       .  A
C530        O538   1.261       .  A
C530        C757   1.482       .  S
O531        C539   1.261       .  A
O532        C539   1.265       .  A
C533        O540   1.261       .  A
C533        O534   1.262       .  A
C533        C787   1.484       .  S
C535        O537   1.265       .  A
C535        O541   1.260       .  A
C535        C777   1.484       .  S
C539        C764   1.480       .  S
In542       O544   2.225       .  S
In542       O553   2.233       .  S
In542       O547   2.250       .  S
In542       O549   2.250       .  S
In542       O554   2.229       .  S
C543        O549   1.264       .  A
O545        C552   1.263   1_655  A
C546        O553   1.259       .  A
C546        O547   1.262       .  A
C546        C784   1.479       .  S
C548        O550   1.263   1_455  A
C548        C744   1.481   1_455  S
C552        C737   1.483   1_455  S
In555       O557   2.226       .  S
In555       O558   2.258       .  S
In555       O566   2.246   1_554  S
In555       O824   2.249       .  S
In555       O562   2.251   1_554  S
In555       O827   2.262   1_554  S
In555       O828   2.234       .  S
In555       O831   2.210   1_554  S
C556        O562   1.265   1_554  A
C556        O828   1.261       .  A
C556        C971   1.482   1_554  S
O557        C565   1.260       .  A
O558        C565   1.264       .  A
C559        O566   1.260       .  A
C559        O824   1.263   1_556  A
C559        C717   1.486       .  S
O560       In819   2.249       .  S
O560        C823   1.263       .  A
C561        O563   1.265       .  A
C561        O567   1.259       .  A
C561        C747   1.481       .  S
O563       In819   2.262       .  S
O564       In819   2.234       .  S
O564        C820   1.261       .  A
C565        C734   1.482       .  S
O567       In819   2.210       .  S
In568       O570   2.236       .  S
In568       O571   2.243       .  S
In568       O579   2.236       .  S
In568       O837   2.256   1_554  S
In568       O575   2.252   1_554  S
In568       O840   2.262   1_554  S
In568       O841   2.241       .  S
In568       O844   2.229   1_554  S
C569        O839   1.266       .  A
C569        O577   1.261       .  A
C569        C694   1.480       .  S
O570        C578   1.262       .  A
O571        C578   1.265       .  A
C572        O579   1.259       .  A
C572        O837   1.266   1_554  A
C572        C714   1.489   1_554  S
O573       In832   2.256       .  S
O573        C836   1.266       .  A
C574        O576   1.265       .  A
C574        O580   1.260       .  A
C574        C774   1.486       .  S
O575        C833   1.266   1_556  A
O576       In832   2.262       .  S
O577       In832   2.241       .  S
C578        C767   1.485       .  S
O580       In832   2.229       .  S
In581       O583   2.218       .  S
In581       O584   2.260       .  S
In581       O592   2.258       .  S
In581       O586   2.259       .  S
In581       O588   2.257       .  S
In581       O589   2.260       .  S
In581       O590   2.241       .  S
In581       O593   2.216       .  S
C582        O588   1.266       .  A
C582        O590   1.261       .  A
C582        C727   1.484       .  S
O583        C591   1.260       .  A
O584        C591   1.265       .  A
C585        O592   1.261       .  A
C585        O586   1.265       .  A
C585        C684   1.494       .  S
C587        O589   1.265       .  A
C587        O593   1.260       .  A
C587        C674   1.481       .  S
C591        C667   1.481       .  S
In594       O596   2.232       .  S
In594       O597   2.259       .  S
In594       O605   2.246       .  S
In594       O599   2.270       .  S
In594       O601   2.256       .  S
In594       O602   2.257       .  S
In594       O603   2.239       .  S
In594       O606   2.227       .  S
C595        O601   1.266       .  A
C595        O603   1.261       .  A
C595        C754   1.483       .  S
O596        C604   1.261       .  A
O597        C604   1.263       .  A
C598        O605   1.259       .  A
C598        O599   1.264       .  A
C598        C687   1.495       .  S
C600        O602   1.264       .  A
C600        O606   1.261       .  A
C600        C654   1.487       .  S
C604        C647   1.486       .  S
In607       O609   2.227   1_556  S
In607       O618   2.226   1_556  S
In607       O876   2.257       .  S
In607       O614   2.248   1_556  S
In607       O883   2.230       .  S
C608        O878   1.266       .  A
O610        C617   1.263   1_655  A
C611        O618   1.259   1_556  A
C611        O876   1.264       .  A
C611        C634   1.482       .  S
O612       In871   2.257       .  S
O612        C875   1.264       .  A
C613        O615   1.264   1_455  A
C613        C677   1.484   1_455  S
O614        C872   1.266       .  A
C617        C664   1.485   1_455  S
O619       In871   2.230       .  S
In620       O622   2.242       .  S
In620       O623   2.256       .  S
In620       O631   2.237   1_554  S
In620       O889   2.242       .  S
In620       O627   2.256       .  S
In620       O892   2.253   1_554  S
In620       O893   2.239   1_554  S
In620       O896   2.231   1_554  S
C621        O891   1.265       .  A
C621        O629   1.261       .  A
C621        C697   1.480       .  S
O622        C630   1.260       .  A
O623        C630   1.264       .  A
C624        O631   1.261   1_554  A
C624        O889   1.263       .  A
C624        C637   1.484   1_554  S
O625       In884   2.242       .  S
O625        C888   1.263       .  A
C626        O628   1.266       .  A
C626        O632   1.262       .  A
C626        C657   1.483       .  S
O627        C885   1.265   1_554  A
O628       In884   2.253       .  S
O629       In884   2.239       .  S
C630        C644   1.488       .  S
O632       In884   2.231       .  S
C633        C898   1.413       .  A
C633        C638   1.408       .  A
C633       Br640   1.935       .  S
C634        C897   1.413       .  A
C634        C635   1.412   1_556  A
C635        C636   1.410       .  A
C635       Br642   1.932       .  S
C636        C637   1.414   1_554  A
C636       Br641   1.934       .  S
C637        C902   1.413       .  A
C638        C901   1.413       .  A
C638       Br639   1.934       .  S
C643        C644   1.413       .  A
C643        C648   1.408       .  A
C643       Br650   1.933       .  S
C644        C645   1.416       .  A
C645        C646   1.412       .  A
C645       Br652   1.933       .  S
C646        C647   1.413       .  A
C646       Br651   1.934       .  S
C647        C648   1.412       .  A
C648       Br649   1.933       .  S
C653        C654   1.415       .  A
C653        C658   1.411       .  A
C653       Br660   1.933       .  S
C654        C655   1.413       .  A
C655        C656   1.407       .  A
C655       Br662   1.933       .  S
C656        C657   1.411       .  A
C656       Br661   1.932       .  S
C657        C658   1.413       .  A
C658       Br659   1.933       .  S
C663        C664   1.415   1_455  A
C663        C668   1.409       .  A
C663       Br670   1.935       .  S
C665       Br672   1.931       .  S
C666        C667   1.411       .  A
C667        C668   1.411   1_655  A
C668       Br669   1.932       .  S
C673        C674   1.412       .  A
C673        C678   1.407       .  A
C673       Br680   1.934       .  S
C674        C675   1.413   1_655  A
C676       Br681   1.935       .  S
C677        C678   1.413       .  A
C678       Br679   1.934       .  S
C683        C684   1.416       .  A
C683        C688   1.415       .  A
C683       Br690   1.932       .  S
C684        C685   1.412       .  A
C685        C686   1.412       .  A
C685       Br692   1.933       .  S
C686        C687   1.417       .  A
C686       Br691   1.934       .  S
C687        C688   1.414       .  A
C688       Br689   1.933       .  S
C693        C694   1.410       .  A
C693        C698   1.410       .  A
C693       Br700   1.931       .  S
C694        C959   1.412       .  A
C695        C958   1.412   1_554  A
C695        C696   1.410       .  A
C695       Br702   1.931       .  S
C696        C961   1.410   1_554  A
C696       Br701   1.931       .  S
C697        C960   1.410       .  A
C697        C698   1.411       .  A
C698       Br699   1.931       .  S
C703        C708   1.408       .  A
C703       Br710   1.933   1_565  S
C704        C969   1.413       .  A
C705        C968   1.413   1_554  A
C705        C706   1.410   1_545  A
C705       Br712   1.933       .  S
C706        C971   1.412   1_554  A
C706       Br711   1.932       .  S
C707        C820   1.482       .  S
C707        C970   1.412       .  A
C708       Br709   1.934       .  S
C713        C978   1.417       .  A
C713        C718   1.410       .  A
C713       Br720   1.934       .  S
C714        C977   1.417       .  A
C714        C715   1.413   1_556  A
C715        C716   1.411       .  A
C715       Br722   1.933       .  S
C716        C717   1.414   1_554  A
C716       Br721   1.932       .  S
C717        C982   1.411       .  A
C718        C981   1.411       .  A
C718       Br719   1.934       .  S
C723        C728   1.411   1_565  A
C723       Br730   1.933       .  S
C724        C725   1.412       .  A
C725        C726   1.410   1_565  A
C725       Br732   1.932       .  S
C726        C727   1.411       .  A
C726       Br731   1.931       .  S
C728       Br729   1.932       .  S
C733        C738   1.408       .  A
C733       Br740   1.932       .  S
C734        C735   1.412       .  A
C735        C736   1.409       .  A
C735       Br742   1.931       .  S
C736        C737   1.412       .  A
C736       Br741   1.932       .  S
C738       Br739   1.933       .  S
C743        C748   1.410       .  A
C743       Br750   1.935       .  S
C744        C745   1.412       .  A
C745        C746   1.406       .  A
C745       Br752   1.933       .  S
C746        C747   1.413       .  A
C746       Br751   1.936       .  S
C748       Br749   1.932       .  S
C753        C754   1.414       .  A
C753        C758   1.411       .  A
C753       Br760   1.933       .  S
C754        C755   1.410       .  A
C755        C756   1.409       .  A
C755       Br762   1.931       .  S
C756        C757   1.413       .  A
C756       Br761   1.934       .  S
C757        C758   1.411       .  A
C758       Br759   1.932       .  S
C763        C764   1.411       .  A
C763        C768   1.410       .  A
C763       Br770   1.934       .  S
C764        C765   1.410       .  A
C765        C766   1.408       .  A
C765       Br772   1.933       .  S
C766        C767   1.414       .  A
C766       Br771   1.933       .  S
C767        C768   1.416       .  A
C768       Br769   1.933       .  S
C773        C774   1.413       .  A
C773        C778   1.409       .  A
C773       Br780   1.932       .  S
C774        C775   1.413       .  A
C775        C776   1.410       .  A
C775       Br782   1.932       .  S
C776        C777   1.414       .  A
C776       Br781   1.933       .  S
C777        C778   1.412       .  A
C778       Br779   1.933       .  S
C783        C784   1.411       .  A
C783        C788   1.408       .  A
C783       Br790   1.932       .  S
C784        C785   1.410       .  A
C785        C786   1.410       .  A
C785       Br792   1.934       .  S
C786        C787   1.415       .  A
C786       Br791   1.932       .  S
C787        C788   1.413       .  A
C788       Br789   1.933       .  S
In793       O795   2.225       .  S
In793       O796   2.252       .  S
In793       O804   2.243       .  S
In793       O798   2.244       .  S
In793       O800   2.255       .  S
In793       O801   2.252       .  S
In793       O802   2.227       .  S
In793       O805   2.229       .  S
C794        O800   1.266       .  A
C794        O802   1.261       .  A
C794       C1021   1.482       .  S
O795        C803   1.261       .  A
O796        C803   1.265       .  A
C797        O804   1.261       .  A
C797        O798   1.262       .  A
C797       C1051   1.484       .  S
C799        O801   1.265       .  A
C799        O805   1.260       .  A
C799       C1041   1.484       .  S
C803       C1028   1.480       .  S
In806       O808   2.225       .  S
In806       O817   2.233       .  S
In806       O811   2.250       .  S
In806       O813   2.250       .  S
In806       O818   2.229       .  S
C807        O813   1.264       .  A
O809        C816   1.263   1_655  A
C810        O817   1.259       .  A
C810        O811   1.262       .  A
C810       C1048   1.479       .  S
C812        O814   1.263   1_455  A
C812       C1008   1.481   1_455  S
C816       C1001   1.483   1_455  S
In819       O821   2.226       .  S
In819       O822   2.258       .  S
In819       O830   2.246       .  S
In819       O826   2.251       .  S
C820        O826   1.265       .  A
O821        C829   1.260       .  A
O822        C829   1.265       .  A
C823        O830   1.260       .  A
C823        C981   1.486       .  S
C825        O827   1.265       .  A
C825        O831   1.259       .  A
C825       C1011   1.481       .  S
C829        C998   1.482       .  S
In832       O834   2.236       .  S
In832       O835   2.243       .  S
In832       O843   2.236       .  S
In832       O839   2.252       .  S
C833        O841   1.261       .  A
C833        C958   1.480   1_554  S
O834        C842   1.262       .  A
O835        C842   1.265       .  A
C836        O843   1.259       .  A
C836        C978   1.489       .  S
C838        O840   1.265       .  A
C838        O844   1.260       .  A
C838       C1038   1.486       .  S
C842       C1031   1.485       .  S
In845       O847   2.218       .  S
In845       O848   2.260       .  S
In845       O856   2.258       .  S
In845       O850   2.259       .  S
In845       O852   2.257       .  S
In845       O853   2.260       .  S
In845       O854   2.241       .  S
In845       O857   2.216       .  S
C846        O852   1.266       .  A
C846        O854   1.261       .  A
C846        C991   1.484       .  S
O847        C855   1.260       .  A
O848        C855   1.265       .  A
C849        O856   1.261       .  A
C849        O850   1.265       .  A
C849        C948   1.494       .  S
C851        O853   1.265       .  A
C851        O857   1.260       .  A
C851        C938   1.481       .  S
C855        C931   1.481       .  S
In858       O860   2.232       .  S
In858       O861   2.259       .  S
In858       O869   2.246       .  S
In858       O863   2.270       .  S
In858       O865   2.256       .  S
In858       O866   2.257       .  S
In858       O867   2.239       .  S
In858       O870   2.227       .  S
C859        O865   1.266       .  A
C859        O867   1.261       .  A
C859       C1018   1.483       .  S
O860        C868   1.261       .  A
O861        C868   1.263       .  A
C862        O869   1.259       .  A
C862        O863   1.264       .  A
C862        C951   1.495       .  S
C864        O866   1.264       .  A
C864        O870   1.261       .  A
C864        C918   1.487       .  S
C868        C911   1.486       .  S
In871       O873   2.227       .  S
In871       O882   2.226       .  S
In871       O878   2.248       .  S
O874        C881   1.263   1_655  A
C875        O882   1.259       .  A
C875        C898   1.482       .  S
C877        O879   1.264   1_455  A
C877        C941   1.484   1_455  S
C881        C928   1.485   1_455  S
In884       O886   2.242       .  S
In884       O887   2.256       .  S
In884       O895   2.237       .  S
In884       O891   2.256       .  S
C885        O893   1.261       .  A
C885        C961   1.480       .  S
O886        C894   1.259       .  A
O887        C894   1.264       .  A
C888        O895   1.261       .  A
C888        C901   1.484       .  S
C890        O892   1.266       .  A
C890        O896   1.262       .  A
C890        C921   1.483       .  S
C894        C908   1.488       .  S
C897        C902   1.408       .  A
C897       Br904   1.935       .  S
C898        C899   1.412       .  A
C899        C900   1.410       .  A
C899       Br906   1.932       .  S
C900        C901   1.414       .  A
C900       Br905   1.934       .  S
C902       Br903   1.934       .  S
C907        C908   1.413       .  A
C907        C912   1.408       .  A
C907       Br914   1.933       .  S
C908        C909   1.416       .  A
C909        C910   1.412       .  A
C909       Br916   1.933       .  S
C910        C911   1.413       .  A
C910       Br915   1.934       .  S
C911        C912   1.412       .  A
C912       Br913   1.933       .  S
C917        C918   1.415       .  A
C917        C922   1.411       .  A
C917       Br924   1.933       .  S
C918        C919   1.413       .  A
C919        C920   1.407       .  A
C919       Br926   1.933       .  S
C920        C921   1.411       .  A
C920       Br925   1.932       .  S
C921        C922   1.413       .  A
C922       Br923   1.933       .  S
C927        C928   1.415   1_455  A
C927        C932   1.409       .  A
C927       Br934   1.935       .  S
C929       Br936   1.931       .  S
C930        C931   1.411       .  A
C931        C932   1.411   1_655  A
C932       Br933   1.932       .  S
C937        C938   1.412       .  A
C937        C942   1.407       .  A
C937       Br944   1.934       .  S
C938        C939   1.413   1_655  A
C940       Br945   1.935       .  S
C941        C942   1.414       .  A
C942       Br943   1.934       .  S
C947        C948   1.416       .  A
C947        C952   1.415       .  A
C947       Br954   1.932       .  S
C948        C949   1.412       .  A
C949        C950   1.412       .  A
C949       Br956   1.933       .  S
C950        C951   1.417       .  A
C950       Br955   1.934       .  S
C951        C952   1.414       .  A
C952       Br953   1.933       .  S
C957        C958   1.410       .  A
C957        C962   1.410       .  A
C957       Br964   1.931       .  S
C959        C960   1.410       .  A
C959       Br966   1.931       .  S
C960       Br965   1.931       .  S
C961        C962   1.411       .  A
C962       Br963   1.931       .  S
C967        C972   1.408       .  A
C967       Br974   1.933   1_565  S
C969        C970   1.410   1_545  A
C969       Br976   1.933       .  S
C970       Br975   1.932       .  S
C972       Br973   1.934       .  S
C977        C982   1.410       .  A
C977       Br984   1.934       .  S
C978        C979   1.413       .  A
C979        C980   1.411       .  A
C979       Br986   1.934       .  S
C980        C981   1.414       .  A
C980       Br985   1.932       .  S
C982       Br983   1.934       .  S
C987        C992   1.411   1_565  A
C987       Br994   1.933       .  S
C988        C989   1.412       .  A
C989        C990   1.410   1_565  A
C989       Br996   1.932       .  S
C990        C991   1.411       .  A
C990       Br995   1.931       .  S
C992       Br993   1.932       .  S
C997       C1002   1.408       .  A
C997      Br1004   1.932       .  S
C998        C999   1.412       .  A
C999       C1000   1.409       .  A
C999      Br1006   1.931       .  S
C1000      C1001   1.412       .  A
C1000     Br1005   1.932       .  S
C1002     Br1003   1.933       .  S
C1007      C1012   1.410       .  A
C1007     Br1014   1.935       .  S
C1008      C1009   1.412       .  A
C1009      C1010   1.406       .  A
C1009     Br1016   1.933       .  S
C1010      C1011   1.413       .  A
C1010     Br1015   1.936       .  S
C1012     Br1013   1.932       .  S
C1017      C1018   1.414       .  A
C1017      C1022   1.411       .  A
C1017     Br1024   1.933       .  S
C1018      C1019   1.410       .  A
C1019      C1020   1.409       .  A
C1019     Br1026   1.931       .  S
C1020      C1021   1.413       .  A
C1020     Br1025   1.934       .  S
C1021      C1022   1.411       .  A
C1022     Br1023   1.932       .  S
C1027      C1028   1.411       .  A
C1027      C1032   1.410       .  A
C1027     Br1034   1.934       .  S
C1028      C1029   1.410       .  A
C1029      C1030   1.408       .  A
C1029     Br1036   1.933       .  S
C1030      C1031   1.414       .  A
C1030     Br1035   1.933       .  S
C1031      C1032   1.416       .  A
C1032     Br1033   1.933       .  S
C1037      C1038   1.413       .  A
C1037      C1042   1.409       .  A
C1037     Br1044   1.932       .  S
C1038      C1039   1.413       .  A
C1039      C1040   1.410       .  A
C1039     Br1046   1.932       .  S
C1040      C1041   1.414       .  A
C1040     Br1045   1.933       .  S
C1041      C1042   1.412       .  A
C1042     Br1043   1.933       .  S
C1047      C1048   1.411       .  A
C1047      C1052   1.408       .  A
C1047     Br1054   1.932       .  S
C1048      C1049   1.410       .  A
C1049      C1050   1.410       .  A
C1049     Br1056   1.934       .  S
C1050      C1051   1.415       .  A
C1050     Br1055   1.932       .  S
C1051      C1052   1.413       .  A
C1052     Br1053   1.933       .  S
