geometry optimzed in LAMMPS
_audit_creation_date              2020-11-30 
_audit_creation_method            'lammps2cif' 
_symmetry_space_group_name_H-M    'P1' 
_symmetry_Int_Tables_number       1 
_symmetry_cell_setting            triclinic 
loop_ 
_symmetry_equiv_pos_as_xyz 
  x,y,z 
_cell_length_a                    25.29769732787047 
_cell_length_b                    26.817737334003493 
_cell_length_c                    28.044014090370975 
_cell_angle_alpha                 90.57992721633782 
_cell_angle_beta                  88.96937513480165 
_cell_angle_gamma                 93.75224859801676 
loop_ 
_atom_site_label 
_atom_site_type_symbol 
_atom_site_fract_x 
_atom_site_fract_y 
_atom_site_fract_z 
_atom_site_charge 
In1        In  0.55047194  0.60038301  0.34602295     1.36870
C2          C  0.63113823  0.57439476  0.29095035     0.77190
O3          O  0.55095920  0.63776134  0.41634610    -0.61260
O4          O  0.58797602  0.56889138  0.40929197    -0.52170
C5          C  0.54012713  0.69447522  0.33600912     0.69850
O6          O  0.57823835  0.67390036  0.31628585    -0.47030
C7          C  0.45965540  0.55627226  0.31165008     0.74560
O8          O  0.60902272  0.61460703  0.28577069    -0.58890
O9          O  0.47610774  0.54714684  0.35264919    -0.48980
O10         O  0.61681331  0.55196313  0.32879530    -0.55320
C11         C  0.58212411  0.60850976  0.43319117     0.84740
O12         O  0.51241013  0.66728943  0.36446166    -0.57210
O13         O  0.49159463  0.58486721  0.28848650    -0.60500
In14       In  0.00245688  0.46692438  0.07057698     1.36870
C15         C  0.93784214  0.51478750  0.01740590     0.77190
O16         O  0.94500625  0.41918661  0.11028490    -0.61260
O17         O  0.98767251  0.47490102  0.15073791    -0.52170
C18         C  0.02842565  0.38003693  0.05034465     0.69850
O19         O  0.99856621  0.40139157  0.02204864    -0.47030
C20         C  0.09965411  0.51205225  0.05425265     0.74560
O21         O  0.94604693  0.46937494  0.01056028    -0.58890
O22         O  0.05922669  0.53478707  0.06710727    -0.48980
O23         O  0.95710480  0.53306733  0.05552794    -0.55320
C24         C  0.95303319  0.43880740  0.15029939     0.84740
O25         O  0.04677843  0.40537590  0.08534744    -0.57210
O26         O  0.08984928  0.46616895  0.04884648    -0.60500
C27         C  0.41055840  0.53043656  0.28835727    -0.02880
C28         C  0.31951420  0.40167225  0.45694256    -0.02880
C29         C  0.15240215  0.53924720  0.04001551    -0.02880
C30         C  0.25379566  0.66663934  0.20233208    -0.02880
In31       In  0.51882658  0.46751499  0.19434095     1.36870
C32         C  0.44148354  0.50173607  0.25050969     0.77190
O33         O  0.56139341  0.51921508  0.24438387    -0.61260
O34         O  0.60685799  0.49757226  0.18538059    -0.52170
C35         C  0.56102971  0.38811342  0.21782044     0.69850
O36         O  0.51363865  0.39522014  0.22983667    -0.47030
C37         C  0.47769679  0.43824194  0.11025942     0.74560
O38         O  0.47175905  0.46836115  0.26225653    -0.58890
O39         O  0.49947334  0.48198283  0.11643452    -0.48980
O40         O  0.44970558  0.51687720  0.20802139    -0.55320
C41         C  0.60712898  0.51941777  0.22561325     0.84740
O42         O  0.58474004  0.42114985  0.19269037    -0.57210
O43         O  0.47856383  0.41110140  0.14647992    -0.60500
In44       In  0.06413865  0.62166350  0.45008696     1.36870
C45         C  0.12862500  0.57218161  0.50308400     0.77190
O46         O  0.99390093  0.60290176  0.49728645    -0.61260
O47         O  0.98896500  0.57861935  0.42544083    -0.52170
C48         C  0.02834236  0.70755351  0.45538173     0.69850
O49         O  0.05878971  0.69375182  0.48740717    -0.47030
C50         C  0.11934584  0.64485334  0.37369176     0.74560
O51         O  0.12297115  0.61824786  0.50950833    -0.58890
O52         O  0.08760894  0.60630131  0.37496436    -0.48980
O53         O  0.10257628  0.55306972  0.46839954    -0.55320
C54         C  0.96663559  0.57886930  0.46617463     0.84740
O55         O  0.01978709  0.67760504  0.42125696    -0.57210
O56         O  0.12463167  0.66879616  0.41223499    -0.60500
C57         C  0.91549758  0.54762822  0.47969259    -0.02880
C58         C  0.82246603  0.40402346  0.32181844    -0.02880
C59         C  0.65576416  0.54791938  0.24850981    -0.02880
C60         C  0.73867597  0.67125233  0.07527991    -0.02880
In61       In  0.04984179  0.96076121  0.45042068     1.36870
C62         C  0.12478838  0.99015269  0.51164908     0.77190
O63         O  0.09235395  0.90736696  0.40658852    -0.61260
O64         O  0.07767505  0.97729519  0.37511708    -0.52170
C65         C  0.98870106  0.88214442  0.45463611     0.69850
O66         O  0.02708798  0.89018572  0.48296683    -0.47030
C67         C  0.96670148  0.01319958  0.47341660     0.74560
O68         O  0.08476953  0.96190396  0.02259459    -0.58890
O69         O  0.00410949  0.03113425  0.44634915    -0.48980
O70         O  0.12941766  0.99857497  0.46767198    -0.55320
C71         C  0.09887174  0.93570167  0.37107104     0.84740
O72         O  0.98622873  0.91236212  0.42051987    -0.57210
O73         O  0.97550920  0.97191967  0.49056248    -0.60500
In74       In  0.52400909  0.11856615  0.20310263     1.36870
C75         C  0.44888097  0.08178281  0.26458101     0.77190
O76         O  0.47982638  0.16741384  0.15581930    -0.61260
O77         O  0.51158660  0.10359014  0.12411994    -0.52170
C78         C  0.57322285  0.20096089  0.22481504     0.69850
O79         O  0.53014876  0.18650739  0.24580308    -0.47030
C80         C  0.60885842  0.06635474  0.22300057     0.74560
O81         O  0.48089473  0.11808327  0.27477842    -0.58890
O82         O  0.56651906  0.04601792  0.20571591    -0.48980
O83         O  0.45164499  0.06894367  0.22123070    -0.55320
C84         C  0.48468515  0.14120438  0.11881101     0.84740
O85         O  0.58742189  0.17443774  0.19004736    -0.57210
O86         O  0.60821940  0.11236896  0.22674275    -0.60500
C87         C  0.92145943  0.04181026  0.49374819    -0.02880
C88         C  0.83372836  0.17135658  0.33735256    -0.02880
C89         C  0.65556604  0.03857253  0.23956762    -0.02880
C90         C  0.73687736  0.91025635  0.07681227    -0.02880
In91       In  0.55163558  0.96312004  0.33412108     1.36870
C92         C  0.62599384  0.00390560  0.27574748     0.77190
O93         O  0.46601298  0.98375801  0.34992410    -0.61260
O94         O  0.51607107  0.02728863  0.30357919    -0.52170
C95         C  0.50495641  0.88145759  0.30442914     0.69850
O96         O  0.55108184  0.89576655  0.28993424    -0.47030
C97         C  0.59487304  0.94022791  0.41539724     0.74560
O98         O  0.59050228  0.97156369  0.26248070    -0.58890
O99         O  0.57583313  0.98212763  0.40912937    -0.48980
O100        O  0.62811982  0.00933764  0.32046138    -0.55320
C101        C  0.46948514  0.01806205  0.31952743     0.84740
O102        O  0.48291731  0.91046333  0.33275034    -0.57210
O103        O  0.58954436  0.91021350  0.38087284    -0.60500
In104      In  0.02991034  0.10135739  0.09361325     1.36870
C105        C  0.95615413  0.06661667  0.03214071     0.77190
O106        O  0.11637823  0.09415254  0.07850030    -0.61260
O107        O  0.06974353  0.02755491  0.08931368    -0.52170
C108        C  0.06901775  0.18287647  0.05711665     0.69850
O109        O  0.02593746  0.16187628  0.04283621    -0.47030
C110        C  0.98478412  0.13501272  0.17689841     0.74560
O111        O  0.98453098  0.10608006  0.02538869    -0.58890
O112        O  0.00446962  0.09293331  0.17377123    -0.48980
O113        O  0.96745019  0.04411392  0.06981058    -0.55320
C114        C  0.11375339  0.04753690  0.07454716     0.84740
O115        O  0.09482318  0.15896993  0.08658417    -0.57210
O116        O  0.99070505  0.15877473  0.13893166    -0.60500
C117        C  0.15726546  0.01884734  0.04909353    -0.02880
C118        C  0.25045196  0.90421309  0.21082932    -0.02880
C119        C  0.42322111  0.04665303  0.30256600    -0.02880
C120        C  0.32934340  0.17023919  0.46736299    -0.02880
C121        C  0.41027202  0.14771040  0.40764147    -0.02240
C122        C  0.35498292  0.14438810  0.42002928     0.07440
C123        C  0.32507292  0.10784294  0.39091567    -0.02350
C124        C  0.34937928  0.06956079  0.36560066    -0.02360
C125        C  0.40155674  0.07694599  0.34793131     0.07570
C126        C  0.43277542  0.11362921  0.37456454    -0.02550
Br127      Br  0.50712159  0.10818657  0.38092015    -0.01100
Br128      Br  0.45608872  0.20530983  0.42343060    -0.01170
Br129      Br  0.31723182  0.00249173  0.37402516    -0.01130
Br130      Br  0.25178346  0.10927443  0.37503777    -0.01120
C131        C  0.28711725  0.98829539  0.25819080    -0.02240
C132        C  0.29749809  0.94149187  0.23325214     0.07440
C133        C  0.35164357  0.94136754  0.21782531    -0.02350
C134        C  0.39294824  0.96990742  0.24275288    -0.02360
C135        C  0.38086570  0.01005522  0.27496897     0.07570
C136        C  0.32902740  0.02447579  0.26903295    -0.02550
Br137      Br  0.31834337  0.09528728  0.26203866    -0.01100
Br138      Br  0.21857155  0.01473572  0.27012408    -0.01170
Br139      Br  0.46451271  0.95892958  0.22254503    -0.01130
Br140      Br  0.36864180  0.91409298  0.15524548    -0.01120
C141        C  0.19094553  0.93236292  0.08401827    -0.02240
C142        C  0.18270580  0.98540242  0.08795774     0.07440
C143        C  0.20480187  0.00948791  0.12911449    -0.02350
C144        C  0.23777902  0.98483568  0.15899076    -0.02360
C145        C  0.23709389  0.93176747  0.16157261     0.07570
C146        C  0.22309871  0.90837455  0.11740823    -0.02550
Br147      Br  0.26581591  0.85713621  0.09128819    -0.01100
Br148      Br  0.16286975  0.88848523  0.03388811    -0.01170
Br149      Br  0.30422602  0.02259141  0.15528953    -0.01130
Br150      Br  0.19402527  0.07729723  0.14987036    -0.01120
C151        C  0.18608864  0.10061762  0.99803163    -0.02240
C152        C  0.20006136  0.05634189  0.02197210     0.07440
C153        C  0.25197351  0.04269180  0.00984832    -0.02350
C154        C  0.29152444  0.07780882  0.99112824    -0.02360
C155        C  0.28079368  0.12962091  0.48171672     0.07570
C156        C  0.22520714  0.13758891  0.48065595    -0.02550
Br157      Br  0.19873289  0.19101290  0.44360149    -0.01100
Br158      Br  0.11446105  0.10455947  0.97526832    -0.01170
Br159      Br  0.36109129  0.05059112  0.97939939    -0.01130
Br160      Br  0.26780479  0.97334082  0.00689614    -0.01120
C161        C  0.64104968  0.93461253  0.04347470    -0.02240
C162        C  0.69610736  0.92224130  0.03554829     0.07440
C163        C  0.71146993  0.91955744  0.48652311    -0.02350
C164        C  0.67331048  0.90623580  0.45293978    -0.02360
C165        C  0.62468419  0.92838655  0.45811241     0.07570
C166        C  0.60899631  0.94397248  0.50394618    -0.02550
Br167      Br  0.54078719  0.97176098  0.51316900    -0.01100
Br168      Br  0.60101155  0.92805644  0.10351206    -0.01170
Br169      Br  0.69758806  0.87797571  0.39355603    -0.01130
Br170      Br  0.74799392  0.97737857  0.45796726    -0.01120
C171        C  0.69825375  0.95864577  0.20638817    -0.02240
C172        C  0.67798355  0.00606489  0.19760193     0.07440
C173        C  0.67802484  0.02055188  0.14866850    -0.02350
C174        C  0.70740968  0.99428801  0.11460131    -0.02360
C175        C  0.71729421  0.94221225  0.12124203     0.07570
C176        C  0.70624783  0.92435591  0.16850579    -0.02550
Br177      Br  0.68841857  0.85569930  0.18416530    -0.01100
Br178      Br  0.72040261  0.93984294  0.26896231    -0.01170
Br179      Br  0.72890895  0.03292557  0.05853896    -0.01130
Br180      Br  0.64225830  0.07721987  0.12372859    -0.01120
C181        C  0.75007040  0.08876124  0.24203065    -0.02240
C182        C  0.69977179  0.07657466  0.26334534     0.07440
C183        C  0.69276040  0.10038792  0.30851293    -0.02350
C184        C  0.73563179  0.12439934  0.33418433    -0.02360
C185        C  0.78624505  0.13716902  0.31202256     0.07570
C186        C  0.79307039  0.10941713  0.26818497    -0.02550
Br187      Br  0.85575281  0.07541936  0.25016302    -0.01100
Br188      Br  0.75956681  0.10292722  0.17581487    -0.01170
Br189      Br  0.72368155  0.12812749  0.40245222    -0.01130
Br190      Br  0.62369304  0.11373443  0.33190564    -0.01120
C191        C  0.91130239  0.18430549  0.21340340    -0.02240
C192        C  0.95479159  0.15466218  0.21968739     0.07440
C193        C  0.96801985  0.14349158  0.26674603    -0.02350
C194        C  0.93511130  0.15647867  0.30638741    -0.02360
C195        C  0.88325445  0.17540781  0.29950550     0.07570
C196        C  0.87567303  0.19352254  0.25185359    -0.02550
Br197      Br  0.81182030  0.22235014  0.23273296    -0.01100
Br198      Br  0.89548184  0.20780868  0.15017107    -0.01170
Br199      Br  0.96919755  0.15228470  0.36705606    -0.01130
Br200      Br  0.03314436  0.11103799  0.27673917    -0.01120
C201        C  0.87706458  0.12601826  0.46642637    -0.02240
C202        C  0.89914390  0.07870058  0.45500387     0.07440
C203        C  0.89291524  0.06381345  0.40606153    -0.02350
C204        C  0.85838707  0.08686817  0.37649426    -0.02360
C205        C  0.84708381  0.13809764  0.38297541     0.07570
C206        C  0.85013035  0.15406398  0.43180246    -0.02550
Br207      Br  0.80829775  0.20738645  0.45657014    -0.01100
Br208      Br  0.89067667  0.16180848  0.52525690    -0.01170
Br209      Br  0.80716286  0.03541501  0.35454412    -0.01130
Br210      Br  0.93758945  0.02284433  0.36704362    -0.01120
C211        C  0.85939695  0.95630874  0.49686391    -0.02240
C212        C  0.87630941  0.00385698  0.01783137     0.07440
C213        C  0.85613836  0.01068979  0.06548868    -0.02350
C214        C  0.82352024  0.97316326  0.08915542    -0.02360
C215        C  0.79611642  0.93335748  0.06309542     0.07570
C216        C  0.82331724  0.92073022  0.02041692    -0.02550
Br217      Br  0.81262169  0.85441726  0.49290960    -0.01100
Br218      Br  0.87343334  0.94093175  0.43142115    -0.01170
Br219      Br  0.82515585  0.97595442  0.15843581    -0.01130
Br220      Br  0.86323122  0.07328056  0.10023057    -0.01120
C221        C  0.40967175  0.11710823  0.06879731    -0.02240
C222        C  0.45327957  0.14997973  0.07604560     0.07440
C223        C  0.45416938  0.19693917  0.05432095    -0.02350
C224        C  0.41226428  0.20892035  0.02367331    -0.02360
C225        C  0.36922218  0.17239834  0.01291628     0.07570
C226        C  0.36451928  0.13489125  0.04850994    -0.02550
Br227      Br  0.30485563  0.13265822  0.09152238    -0.01100
Br228      Br  0.40975324  0.04981787  0.09186587    -0.01170
Br229      Br  0.41102243  0.27898228  0.01162347    -0.01130
Br230      Br  0.51440418  0.24337760  0.06587099    -0.01120
C231        C  0.14979465  0.92057075  0.24331301    -0.02240
C232        C  0.20335745  0.90471265  0.25007124     0.07440
C233        C  0.21555297  0.89303990  0.29873091    -0.02350
C234        C  0.18144611  0.90334256  0.33732412    -0.02360
C235        C  0.13189072  0.92161689  0.32952204     0.07570
C236        C  0.11483256  0.92702396  0.28288669    -0.02550
Br237      Br  0.04198080  0.94382207  0.27443102    -0.01100
Br238      Br  0.11937514  0.94043577  0.18427266    -0.01170
Br239      Br  0.20539799  0.89720600  0.40258073    -0.01130
Br240      Br  0.28176283  0.86927230  0.31818139    -0.01120
C241        C  0.76528633  0.76773481  0.11516006    -0.02240
C242        C  0.74298458  0.73488265  0.07763515     0.07440
C243        C  0.71744189  0.76690077  0.04363629    -0.02350
C244        C  0.70251029  0.81541989  0.05591494    -0.02360
C245        C  0.73657121  0.84921230  0.08252496     0.07570
C246        C  0.77258942  0.82176232  0.10974463    -0.02550
Br247      Br  0.82889634  0.85474956  0.14513449    -0.01100
Br248      Br  0.76683668  0.75056104  0.18116528    -0.01170
Br249      Br  0.62827236  0.82334190  0.54530273    -0.01130
Br250      Br  0.70060743  0.75855391  0.47681851    -0.01120
C251        C  0.74689497  0.63997916  0.16651286    -0.02240
C252        C  0.71520818  0.64441108  0.12439065     0.07440
C253        C  0.66283953  0.61830570  0.12997560    -0.02350
C254        C  0.64207148  0.60475914  0.17459446    -0.02360
C255        C  0.67570524  0.59037783  0.21093470     0.07570
C256        C  0.72480756  0.61920941  0.21048022    -0.02550
Br257      Br  0.76170510  0.63138144  0.26941798    -0.01100
Br258      Br  0.82383102  0.64937130  0.16362635    -0.01170
Br259      Br  0.56667052  0.61279773  0.18411306    -0.01130
Br260      Br  0.62047489  0.57700456  0.08467377    -0.01120
C261        C  0.84353412  0.32138690  0.37477599    -0.02240
C262        C  0.81150915  0.34473106  0.33995489     0.07440
C263        C  0.77866596  0.30577295  0.31673013    -0.02350
C264        C  0.77554625  0.25453162  0.33124161    -0.02360
C265        C  0.82057416  0.23095963  0.34840396     0.07570
C266        C  0.85570790  0.26890467  0.37079364    -0.02550
Br267      Br  0.92038407  0.25320658  0.40023310    -0.01100
Br268      Br  0.87045864  0.35636788  0.43092612    -0.01170
Br269      Br  0.70396064  0.22850691  0.34055592    -0.01130
Br270      Br  0.73361509  0.31264997  0.26439523    -0.01120
C271        C  0.78689297  0.48757099  0.28647284    -0.02240
C272        C  0.77386456  0.43983124  0.30905963     0.07440
C273        C  0.71719091  0.43040652  0.31545005    -0.02350
C274        C  0.68005089  0.46509138  0.29791362    -0.02360
C275        C  0.69579865  0.50731139  0.26742570     0.07570
C276        C  0.75075072  0.51143370  0.25799570    -0.02550
Br277      Br  0.77875140  0.52682920  0.19530634    -0.01100
Br278      Br  0.85444232  0.52420045  0.28708278    -0.01170
Br279      Br  0.60674396  0.44991248  0.31494194    -0.01130
Br280      Br  0.68636742  0.37367929  0.35146897    -0.01120
C281        C  0.92980608  0.48138592  0.40787565    -0.02240
C282        C  0.89616127  0.51263773  0.43533321     0.07440
C283        C  0.84283808  0.50600244  0.42156442    -0.02350
C284        C  0.82371435  0.46201370  0.39821147    -0.02360
C285        C  0.85439867  0.43894241  0.36189845     0.07570
C286        C  0.91037109  0.45664975  0.36548611    -0.02550
Br287      Br  0.96086676  0.47406273  0.31490958    -0.01100
Br288      Br  0.00386828  0.47272944  0.42186160    -0.01170
Br289      Br  0.75937946  0.43305659  0.42558049    -0.01130
Br290      Br  0.79594471  0.55776664  0.42215917    -0.01120
C291        C  0.87455339  0.63382423  0.00963594    -0.02240
C292        C  0.87189093  0.58047815  0.00645573     0.07440
C293        C  0.82808933  0.55715895  0.03134506    -0.02350
C294        C  0.78846649  0.58497221  0.05513779    -0.02360
C295        C  0.79073592  0.63952670  0.05877426     0.07570
C296        C  0.84040865  0.66137456  0.04076157    -0.02550
Br297      Br  0.86039842  0.73083633  0.05022498    -0.01100
Br298      Br  0.90515479  0.67024340  0.95656966    -0.01170
Br299      Br  0.73495486  0.54145307  0.08426953    -0.01130
Br300      Br  0.81737925  0.48498004  0.02633656    -0.01120
C301        C  0.98533653  0.77268346  0.50303672    -0.02240
C302        C  0.00034380  0.75283944  0.45807724     0.07440
C303        C  0.97925394  0.77153449  0.41552026    -0.02350
C304        C  0.94682648  0.81126197  0.41906650    -0.02360
C305        C  0.95083050  0.83969165  0.46056708     0.07570
C306        C  0.95656724  0.81539474  0.50376418    -0.02550
Br307      Br  0.94395231  0.85149040  0.06213188    -0.01100
Br308      Br  0.00434921  0.74427951  0.06299567    -0.01170
Br309      Br  0.91357083  0.83682882  0.36393241    -0.01130
Br310      Br  0.99854065  0.74913540  0.35216212    -0.01120
C311        C  0.57230699  0.31945963  0.27366490    -0.02240
C312        C  0.58656038  0.34390144  0.23052056     0.07440
C313        C  0.62100984  0.32225439  0.19695776    -0.02350
C314        C  0.63126183  0.27236422  0.20244499    -0.02360
C315        C  0.60411709  0.24559210  0.23901068     0.07570
C316        C  0.58529823  0.27054205  0.27914353    -0.02550
Br317      Br  0.56471801  0.23424884  0.33632484    -0.01100
Br318      Br  0.52779909  0.34761801  0.32207036    -0.01170
Br319      Br  0.67531301  0.23943584  0.15629497    -0.01130
Br320      Br  0.64613583  0.35536868  0.13889510    -0.01120
C321        C  0.22738272  0.75823277  0.16934694    -0.02240
C322        C  0.26149481  0.72826798  0.19660341     0.07440
C323        C  0.29214901  0.76052527  0.22893559    -0.02350
C324        C  0.30034591  0.81367506  0.22204653    -0.02360
C325        C  0.25873284  0.84294633  0.20386993     0.07570
C326        C  0.21839433  0.80909959  0.18279454    -0.02550
Br327      Br  0.14688199  0.82568978  0.17289896    -0.01100
Br328      Br  0.19454557  0.73887195  0.10919413    -0.01170
Br329      Br  0.37054737  0.83704435  0.24114005    -0.01130
Br330      Br  0.31631127  0.73997148  0.29029288    -0.01120
C331        C  0.15851888  0.66931861  0.24520806    -0.02240
C332        C  0.21496344  0.66285763  0.24746175     0.07440
C333        C  0.23371981  0.65573466  0.29446974    -0.02350
C334        C  0.20403767  0.66909341  0.33395025    -0.02360
C335        C  0.14953369  0.66017755  0.33098823     0.07570
C336        C  0.12608464  0.66039596  0.28620330    -0.02550
Br337      Br  0.04994728  0.64910644  0.28151957    -0.01100
Br338      Br  0.11992111  0.68327903  0.18888440    -0.01170
Br339      Br  0.23936849  0.68325029  0.39374671    -0.01130
Br340      Br  0.27176130  0.60064107  0.31257441    -0.01120
C341        C  0.22045089  0.60925062  0.07424951    -0.02240
C342        C  0.17746939  0.57260929  0.08291805     0.07440
C343        C  0.16088217  0.56803729  0.13230993    -0.02350
C344        C  0.19061768  0.59224234  0.16882707    -0.02360
C345        C  0.22547698  0.63581354  0.15977857     0.07570
C346        C  0.24328450  0.64043458  0.11137802    -0.02550
Br347      Br  0.30687644  0.68279607  0.09661899    -0.01100
Br348      Br  0.25100198  0.61813584  0.01152287    -0.01170
Br349      Br  0.18870931  0.55525593  0.22881813    -0.01130
Br350      Br  0.09871720  0.53000090  0.15816973    -0.01120
C351        C  0.28546065  0.25883262  0.48795617    -0.02240
C352        C  0.31535073  0.22787213  0.45659233     0.07440
C353        C  0.33925351  0.25685644  0.41816599    -0.02350
C354        C  0.34909218  0.31011318  0.42299541    -0.02360
C355        C  0.31381123  0.34037424  0.45004076     0.07570
C356        C  0.27488304  0.30902514  0.47480008    -0.02550
Br357      Br  0.20113808  0.31995365  0.46574070    -0.01100
Br358      Br  0.25406903  0.23533846  0.54700163    -0.01170
Br359      Br  0.41329085  0.33479389  0.39257144    -0.01130
Br360      Br  0.34523894  0.23110655  0.35378912    -0.01120
C361        C  0.24176066  0.42102907  0.02609777    -0.02240
C362        C  0.26423435  0.42448249  0.47828531     0.07440
C363        C  0.23422875  0.45563276  0.44956555    -0.02350
C364        C  0.20777902  0.49677687  0.46823183    -0.02360
C365        C  0.19220174  0.49962839  0.01773021     0.07570
C366        C  0.20898891  0.45888805  0.04547788    -0.02550
Br367      Br  0.19005573  0.45423832  0.11237650    -0.01100
Br368      Br  0.24921060  0.36399519  0.06753757    -0.01570
Br369      Br  0.20253141  0.54852788  0.42114791    -0.01130
Br370      Br  0.21139576  0.43368924  0.38733252    -0.01120
C371        C  0.35993758  0.40414255  0.04231700    -0.02240
C372        C  0.36882520  0.41236138  0.99300732     0.07440
C373        C  0.42361814  0.43138390  0.98243334    -0.02350
C374        C  0.46042553  0.44053957  0.02059702    -0.02360
C375        C  0.44861506  0.42082784  0.06630805     0.07570
C376        C  0.40105387  0.39084768  0.07084211    -0.02550
Br377      Br  0.38130195  0.35208693  0.12668256    -0.01100
Br378      Br  0.33719721  0.46089977  0.07745414    -0.01170
Br379      Br  0.52826578  0.47692174  0.01037069    -0.01130
Br380      Br  0.45490800  0.44725923  0.42047673    -0.01120
C381        C  0.36438954  0.44234469  0.32387134    -0.02240
C382        C  0.37816065  0.49571323  0.32776226     0.07440
C383        C  0.36313788  0.51720664  0.37270198    -0.02350
C384        C  0.34515002  0.48741562  0.41258814    -0.02360
C385        C  0.33414147  0.43403497  0.40915705     0.07570
C386        C  0.33605299  0.41511014  0.36122399    -0.02550
Br387      Br  0.29246458  0.35623279  0.34128213    -0.01100
Br388      Br  0.38333537  0.39989430  0.27036658    -0.01170
Br389      Br  0.34139682  0.52244879  0.47349303    -0.01130
Br390      Br  0.37269182  0.58838555  0.38471636    -0.01120
C391        C  0.38472826  0.62318731  0.25831995    -0.02240
C392        C  0.37505862  0.56915984  0.26134299     0.07440
C393        C  0.33384384  0.55067128  0.23077733    -0.02350
C394        C  0.30690302  0.58276852  0.20135548    -0.02360
C395        C  0.30660303  0.63541708  0.20971751     0.07570
C396        C  0.35515096  0.65369972  0.22848439    -0.02550
Br397      Br  0.39462308  0.70744996  0.19567036    -0.01100
Br398      Br  0.42267134  0.66449466  0.30234791    -0.01170
Br399      Br  0.31532277  0.56100763  0.13702194    -0.01130
Br400      Br  0.30885688  0.48185829  0.22649520    -0.01120
C401        C  0.05542800  0.30618869  0.00353296    -0.02240
C402        C  0.04084209  0.32882696  0.04649728     0.07440
C403        C  0.04443730  0.30414839  0.08973940    -0.02350
C404        C  0.07387716  0.26307853  0.09198969    -0.02360
C405        C  0.07995044  0.23537590  0.04976758     0.07570
C406        C  0.06980413  0.25674651  0.00506154    -0.02550
Br407      Br  0.06706085  0.21786379  0.94728872    -0.01100
Br408      Br  0.05179675  0.34046502  0.94369856    -0.01170
Br409      Br  0.09170019  0.23991660  0.15463886    -0.01130
Br410      Br  0.99622891  0.31693043  0.14149942    -0.01120
C411        C  0.86570397  0.42033240  0.18717711    -0.02240
C412        C  0.92041456  0.42182370  0.19142072     0.07440
C413        C  0.94186653  0.39992945  0.23086243    -0.02350
C414        C  0.90834235  0.38423321  0.26970695    -0.02360
C415        C  0.85438365  0.39844224  0.27243188     0.07570
C416        C  0.83222230  0.40835300  0.22617039    -0.02550
Br417      Br  0.75790209  0.40589458  0.20800016    -0.01100
Br418      Br  0.83629941  0.43529678  0.12647914    -0.01170
Br419      Br  0.94273200  0.34833988  0.31786391    -0.01130
Br420      Br  0.01824557  0.39612892  0.23335733    -0.01120
C421        C  0.53426000  0.76176067  0.27621596    -0.02240
C422        C  0.52370487  0.74347105  0.32302361     0.07440
C423        C  0.48647495  0.76648510  0.35307426    -0.02350
C424        C  0.46173804  0.80752040  0.33644724    -0.02360
C425        C  0.48275980  0.83129797  0.29554516     0.07570
C426        C  0.51042841  0.80433980  0.26172023    -0.02550
Br427      Br  0.52293586  0.83206630  0.19896534    -0.01100
Br428      Br  0.58327316  0.73292483  0.23208946    -0.01170
Br429      Br  0.40633021  0.83645581  0.37382239    -0.01130
Br430      Br  0.47186723  0.74639424  0.41845996    -0.01120
C431        C  0.64258671  0.67419039  0.04116980    -0.02240
C432        C  0.69682551  0.66101332  0.03517264     0.07440
C433        C  0.71164394  0.64592014  0.48781001    -0.02350
C434        C  0.67314446  0.62726555  0.45615809    -0.02360
C435        C  0.61954438  0.62639467  0.46933067     0.07570
C436        C  0.60410579  0.65557997  0.50843712    -0.02550
Br437      Br  0.52989478  0.66541620  0.52004138    -0.01100
Br438      Br  0.61709557  0.71179691  0.09587810    -0.01170
Br439      Br  0.69237781  0.61804322  0.38923973    -0.01130
Br440      Br  0.77546553  0.67302747  0.45573534    -0.01120
In441      In  0.55046114  0.60038028  0.84603487     1.36870
C442        C  0.63112578  0.57439689  0.79096094     0.77190
O443        O  0.55094746  0.63775487  0.91635943    -0.61260
O444        O  0.58796859  0.56888747  0.90930137    -0.52170
C445        C  0.54012040  0.69447247  0.83602359     0.69850
O446        O  0.57823385  0.67389791  0.81630388    -0.47030
C447        C  0.45964795  0.55627112  0.81165571     0.74560
O448        O  0.60901072  0.61460985  0.78578355    -0.58890
O449        O  0.47609593  0.54714577  0.85265640    -0.48980
O450        O  0.61679826  0.55195968  0.82880250    -0.55320
C451        C  0.58211728  0.60850573  0.93320098     0.84740
O452        O  0.51239904  0.66728642  0.86447293    -0.57210
O453        O  0.49158925  0.58486601  0.78849434    -0.60500
In454      In  0.00247516  0.46691665  0.57057933     1.36870
C455        C  0.93782259  0.51476536  0.51741960     0.77190
O456        O  0.94508740  0.41916190  0.61034455    -0.61260
O457        O  0.98774152  0.47493099  0.65074366    -0.52170
C458        C  0.02842464  0.38002922  0.55032106     0.69850
O459        O  0.99855078  0.40138852  0.52204192    -0.47030
C460        C  0.09966803  0.51204850  0.55424602     0.74560
O461        O  0.94603422  0.46935456  0.51057511    -0.58890
O462        O  0.05923800  0.53478177  0.56709488    -0.48980
O463        O  0.95709051  0.53304674  0.55553878    -0.55320
C464        C  0.95312941  0.43881662  0.65034265     0.84740
O465        O  0.04680455  0.40536451  0.58531457    -0.57210
O466        O  0.08986665  0.46616395  0.54884544    -0.60500
C467        C  0.41055305  0.53043639  0.78835926    -0.02880
C468        C  0.31950357  0.40167472  0.95694307    -0.02880
C469        C  0.15241452  0.53924640  0.54000837    -0.02880
C470        C  0.25380427  0.66664210  0.70232648    -0.02880
In471      In  0.51882667  0.46751079  0.69434975     1.36870
C472        C  0.44148077  0.50173443  0.75051422     0.77190
O473        O  0.56138912  0.51921274  0.74439363    -0.61260
O474        O  0.60685797  0.49757159  0.68539273    -0.52170
C475        C  0.56103341  0.38811193  0.71783383     0.69850
O476        O  0.51364139  0.39521702  0.72984837    -0.47030
C477        C  0.47770045  0.43823747  0.61026602     0.74560
O478        O  0.47175387  0.46835830  0.76226322    -0.58890
O479        O  0.49947792  0.48197783  0.61644175    -0.48980
O480        O  0.44970643  0.51687471  0.70802610    -0.55320
C481        C  0.60712575  0.51941865  0.72562466     0.84740
O482        O  0.58474177  0.42114770  0.69270168    -0.57210
O483        O  0.47856471  0.41109733  0.64648713    -0.60500
In484      In  0.06415099  0.62167947  0.95008396     1.36870
C485        C  0.12861714  0.57218570  0.00309113     0.77190
O486        O  0.99391003  0.60292693  0.99727726    -0.61260
O487        O  0.98897977  0.57863939  0.92543180    -0.52170
C488        C  0.02835240  0.70756824  0.95537616     0.69850
O489        O  0.05880293  0.69376976  0.98740061    -0.47030
C490        C  0.11936224  0.64486309  0.87369057     0.74560
O491        O  0.12297489  0.61825453  0.00951145    -0.58890
O492        O  0.08762375  0.60631244  0.87496417    -0.48980
O493        O  0.10256738  0.55307705  0.96840608    -0.55320
C494        C  0.96664841  0.57889202  0.96616456     0.84740
O495        O  0.01979701  0.67761842  0.92125250    -0.57210
O496        O  0.12465022  0.66880660  0.91223337    -0.60500
C497        C  0.91551394  0.54764943  0.97968267    -0.02880
C498        C  0.82248254  0.40403882  0.82182100    -0.02880
C499        C  0.65575734  0.54792779  0.74852081    -0.02880
C500        C  0.73866729  0.67124902  0.57528626    -0.02880
In501      In  0.04983807  0.96077068  0.95041722     1.36870
C502        C  0.12478354  0.99015790  0.01164805     0.77190
O503        O  0.09235060  0.90737517  0.90658630    -0.61260
O504        O  0.07767476  0.97730348  0.87511380    -0.52170
C505        C  0.98869792  0.88215391  0.95463228     0.69850
O506        O  0.02708443  0.89019577  0.98296325    -0.47030
C507        C  0.96669762  0.01320977  0.97341406     0.74560
O508        O  0.08477544  0.96189790  0.52259713    -0.58890
O509        O  0.00410520  0.03114451  0.94634610    -0.48980
O510        O  0.12941407  0.99858167  0.96767125    -0.55320
C511        C  0.09887058  0.93570938  0.87106871     0.84740
O512        O  0.98622524  0.91237159  0.92051602    -0.57210
O513        O  0.97550573  0.97192956  0.99055909    -0.60500
In514      In  0.52400989  0.11856449  0.70310645     1.36870
C515        C  0.44888381  0.08178327  0.76458853     0.77190
O516        O  0.47983243  0.16741309  0.65581874    -0.61260
O517        O  0.51158625  0.10358420  0.62412428    -0.52170
C518        C  0.57322331  0.20095864  0.72482463     0.69850
O519        O  0.53014355  0.18650778  0.74580455    -0.47030
C520        C  0.60885539  0.06634739  0.72300184     0.74560
O521        O  0.48090342  0.11807905  0.77478615    -0.58890
O522        O  0.56651385  0.04601366  0.70571873    -0.48980
O523        O  0.45164084  0.06894831  0.72123674    -0.55320
C524        C  0.48468823  0.14120011  0.61881237     0.84740
O525        O  0.58742931  0.17443329  0.69006120    -0.57210
O526        O  0.60822122  0.11236249  0.72674234    -0.60500
C527        C  0.92145549  0.04181995  0.99374719    -0.02880
C528        C  0.83371347  0.17135956  0.83734883    -0.02880
C529        C  0.65556051  0.03856049  0.73956789    -0.02880
C530        C  0.73687405  0.91025371  0.57680800    -0.02880
In531      In  0.55163164  0.96311379  0.83412645     1.36870
C532        C  0.62598767  0.00389247  0.77574665     0.77190
O533        O  0.46600925  0.98375354  0.84992832    -0.61260
O534        O  0.51607208  0.02728937  0.80359161    -0.52170
C535        C  0.50495163  0.88145210  0.80443487     0.69850
O536        O  0.55107832  0.89575911  0.78994207    -0.47030
C537        C  0.59486856  0.94022446  0.91540461     0.74560
O538        O  0.59048742  0.97155896  0.76248100    -0.58890
O539        O  0.57583239  0.98212537  0.90913380    -0.48980
O540        O  0.62812454  0.00931560  0.82046090    -0.55320
C541        C  0.46948464  0.01806165  0.81953591     0.84740
O542        O  0.48291150  0.91045958  0.83275360    -0.57210
O543        O  0.58953558  0.91020737  0.88088267    -0.60500
In544      In  0.02991170  0.10134928  0.59361399     1.36870
C545        C  0.95615723  0.06660633  0.53214218     0.77190
O546        O  0.11638009  0.09414850  0.57849916    -0.61260
O547        O  0.06974907  0.02754915  0.58931569    -0.52170
C548        C  0.06901261  0.18286841  0.55711295     0.69850
O549        O  0.02593881  0.16185956  0.54282795    -0.47030
C550        C  0.98477610  0.13500601  0.67689581     0.74560
O551        O  0.98453592  0.10606822  0.52538880    -0.58890
O552        O  0.00447376  0.09293173  0.67377430    -0.48980
O553        O  0.96745115  0.04410461  0.56981342    -0.55320
C554        C  0.11375745  0.04753278  0.57454708     0.84740
O555        O  0.09481684  0.15897044  0.58658830    -0.57210
O556        O  0.99068996  0.15876238  0.63892519    -0.60500
C557        C  0.15727042  0.01884414  0.54909329    -0.02880
C558        C  0.25045525  0.90421531  0.71083125    -0.02880
C559        C  0.42322190  0.04665391  0.80257303    -0.02880
C560        C  0.32933790  0.17024261  0.96736484    -0.02880
C561        C  0.41026766  0.14771374  0.90764522    -0.02240
C562        C  0.35497838  0.14439128  0.92003171     0.07440
C563        C  0.32506961  0.10784495  0.89091836    -0.02350
C564        C  0.34937725  0.06956236  0.86560490    -0.02360
C565        C  0.40155550  0.07694732  0.84793726     0.07570
C566        C  0.43277271  0.11363123  0.87457079    -0.02550
Br567      Br  0.50711718  0.10818554  0.88093439    -0.01100
Br568      Br  0.45608262  0.20531481  0.92343223    -0.01170
Br569      Br  0.31722971  0.00249326  0.87402935    -0.01130
Br570      Br  0.25178025  0.10927497  0.87503952    -0.01120
C571        C  0.28711902  0.98829731  0.75819422    -0.02240
C572        C  0.29750059  0.94149403  0.73325543     0.07440
C573        C  0.35164635  0.94137052  0.71782922    -0.02350
C574        C  0.39295033  0.96990980  0.74275809    -0.02360
C575        C  0.38086698  0.01005675  0.77497472     0.07570
C576        C  0.32902893  0.02447755  0.76903768    -0.02550
Br577      Br  0.31834565  0.09528921  0.76204278    -0.01100
Br578      Br  0.21857318  0.01473833  0.77012471    -0.01170
Br579      Br  0.46451516  0.95893287  0.72255112    -0.01130
Br580      Br  0.36864641  0.91409754  0.65524913    -0.01120
C581        C  0.19095239  0.93236174  0.58401942    -0.02240
C582        C  0.18271191  0.98540108  0.58795777     0.07440
C583        C  0.20480788  0.00948836  0.62911368    -0.02350
C584        C  0.23778437  0.98483728  0.65899135    -0.02360
C585        C  0.23709958  0.93176912  0.66157400     0.07570
C586        C  0.22310569  0.90837495  0.61740999    -0.02550
Br587      Br  0.26582551  0.85713811  0.59129068    -0.01100
Br588      Br  0.16287745  0.88848179  0.53389051    -0.01170
Br589      Br  0.30423062  0.02259522  0.65529451    -0.01130
Br590      Br  0.19402988  0.07729812  0.64986769    -0.01120
C591        C  0.18609365  0.10061424  0.49803105    -0.02240
C592        C  0.20006621  0.05633849  0.52197110     0.07440
C593        C  0.25197821  0.04268829  0.50984650    -0.02350
C594        C  0.29152913  0.07780524  0.49112593    -0.02360
C595        C  0.28078863  0.12962426  0.98171839     0.07570
C596        C  0.22520212  0.13759204  0.98065649    -0.02550
Br597      Br  0.19872791  0.19101530  0.94360058    -0.01100
Br598      Br  0.11446667  0.10455382  0.47526658    -0.01170
Br599      Br  0.36109565  0.05058738  0.47939579    -0.01130
Br600      Br  0.26780921  0.97333731  0.50689406    -0.01120
C601        C  0.64104832  0.93461029  0.54346807    -0.02240
C602        C  0.69610644  0.92223998  0.53554295     0.07440
C603        C  0.71146800  0.91955580  0.98652807    -0.02350
C604        C  0.67330685  0.90623288  0.95294645    -0.02360
C605        C  0.62468113  0.92838457  0.95811968     0.07570
C606        C  0.60899585  0.94397314  0.00395339    -0.02550
Br607      Br  0.54078787  0.97176334  0.01317709    -0.01100
Br608      Br  0.60100751  0.92805227  0.60350394    -0.01170
Br609      Br  0.69758170  0.87797136  0.89356232    -0.01130
Br610      Br  0.74798784  0.97737668  0.95796958    -0.01120
C611        C  0.69824709  0.95863631  0.70638406    -0.02240
C612        C  0.67797652  0.00605536  0.69760021     0.07440
C613        C  0.67801874  0.02054567  0.64866737    -0.02350
C614        C  0.70740465  0.99428392  0.61459910    -0.02360
C615        C  0.71728942  0.94220813  0.62123782     0.07570
C616        C  0.70624051  0.92434923  0.66849997    -0.02550
Br617      Br  0.68839078  0.85569518  0.68415214    -0.01100
Br618      Br  0.72039581  0.93982847  0.76895666    -0.01170
Br619      Br  0.72890531  0.03292343  0.55853828    -0.01130
Br620      Br  0.64225765  0.07721854  0.62373114    -0.01120
C621        C  0.75006813  0.08874179  0.74203704    -0.02240
C622        C  0.69976752  0.07655752  0.76334907     0.07440
C623        C  0.69275306  0.10036986  0.80851690    -0.02350
C624        C  0.73562242  0.12438976  0.83418638    -0.02360
C625        C  0.78623476  0.13716143  0.81202363     0.07570
C626        C  0.79306534  0.10939994  0.76819286    -0.02550
Br627      Br  0.85575101  0.07540122  0.75018330    -0.01100
Br628      Br  0.75957280  0.10290237  0.67582107    -0.01170
Br629      Br  0.72365168  0.12820385  0.90244468    -0.01130
Br630      Br  0.62368011  0.11370796  0.83190599    -0.01120
C631        C  0.91128450  0.18429197  0.71339506    -0.02240
C632        C  0.95477878  0.15465590  0.71968284     0.07440
C633        C  0.96800864  0.14349444  0.76674341    -0.02350
C634        C  0.93509868  0.15648427  0.80638345    -0.02360
C635        C  0.88323888  0.17540728  0.79949967     0.07570
C636        C  0.87565325  0.19351012  0.75184371    -0.02550
Br637      Br  0.81179216  0.22231853  0.73271481    -0.01100
Br638      Br  0.89546170  0.20778612  0.65016013    -0.01170
Br639      Br  0.96918547  0.15229722  0.86705247    -0.01130
Br640      Br  0.03313755  0.11104936  0.77674096    -0.01120
C641        C  0.87705336  0.12602553  0.96642745    -0.02240
C642        C  0.89913669  0.07870987  0.95500377     0.07440
C643        C  0.89290915  0.06382446  0.90606096    -0.02350
C644        C  0.85837617  0.08687590  0.87649611    -0.02360
C645        C  0.84707063  0.13810481  0.88297600     0.07570
C646        C  0.85011663  0.15407083  0.93180399    -0.02550
Br647      Br  0.80829023  0.20739747  0.95657404    -0.01100
Br648      Br  0.89066391  0.16181303  0.02525988    -0.01170
Br649      Br  0.80714176  0.03541933  0.85457166    -0.01130
Br650      Br  0.93758173  0.02285591  0.86704152    -0.01120
C651        C  0.85939520  0.95631657  0.99686381    -0.02240
C652        C  0.87631139  0.00384907  0.51783105     0.07440
C653        C  0.85613747  0.01068426  0.56548683    -0.02350
C654        C  0.82351686  0.97315952  0.58915323    -0.02360
C655        C  0.79611380  0.93335353  0.56309311     0.07570
C656        C  0.82331653  0.92072416  0.52041617    -0.02550
Br657      Br  0.81262316  0.85442354  0.99290978    -0.01100
Br658      Br  0.87343031  0.94094039  0.93142045    -0.01170
Br659      Br  0.82514965  0.97595220  0.65843366    -0.01130
Br660      Br  0.86323035  0.07327629  0.60022605    -0.01120
C661        C  0.40967599  0.11710335  0.56879625    -0.02240
C662        C  0.45328380  0.14997469  0.57604577     0.07440
C663        C  0.45417500  0.19693363  0.55432000    -0.02350
C664        C  0.41227053  0.20891530  0.52367184    -0.02360
C665        C  0.36922808  0.17239385  0.51291426     0.07570
C666        C  0.36452425  0.13488674  0.54850787    -0.02550
Br667      Br  0.30486043  0.13265561  0.59151994    -0.01100
Br668      Br  0.40975595  0.04981250  0.59186366    -0.01170
Br669      Br  0.41102926  0.27897754  0.51162355    -0.01130
Br670      Br  0.51441143  0.24337052  0.56586855    -0.01120
C671        C  0.14979678  0.92057428  0.74331184    -0.02240
C672        C  0.20335896  0.90471518  0.75007161     0.07440
C673        C  0.21555226  0.89304219  0.79873164    -0.02350
C674        C  0.18144483  0.90334679  0.83732399    -0.02360
C675        C  0.13189052  0.92162305  0.82952059     0.07570
C676        C  0.11483387  0.92702947  0.78288465    -0.02550
Br677      Br  0.04198303  0.94382938  0.77442694    -0.01100
Br678      Br  0.11937908  0.94043738  0.68427015    -0.01170
Br679      Br  0.20539457  0.89720989  0.90258111    -0.01130
Br680      Br  0.28175980  0.86927064  0.81818323    -0.01120
C681        C  0.76527581  0.76773520  0.61516310    -0.02240
C682        C  0.74297859  0.73488008  0.57763755     0.07440
C683        C  0.71743866  0.76689692  0.54363526    -0.02350
C684        C  0.70250704  0.81541705  0.55591061    -0.02360
C685        C  0.73656704  0.84921018  0.58252098     0.07570
C686        C  0.77258407  0.82176106  0.60974229    -0.02550
Br687      Br  0.82889074  0.85474655  0.64513343    -0.01100
Br688      Br  0.76677570  0.75058559  0.68117770    -0.01170
Br689      Br  0.62827450  0.82334429  0.04531233    -0.01130
Br690      Br  0.70060691  0.75855936  0.97682036    -0.01120
C691        C  0.74686745  0.64001001  0.66652833    -0.02240
C692        C  0.71519194  0.64441659  0.62439693     0.07440
C693        C  0.66282882  0.61829935  0.62997535    -0.02350
C694        C  0.64205623  0.60474978  0.67459228    -0.02360
C695        C  0.67568729  0.59039149  0.71094392     0.07570
C696        C  0.72477165  0.61925318  0.71049865    -0.02550
Br697      Br  0.76165495  0.63144424  0.76944112    -0.01100
Br698      Br  0.82380355  0.64941901  0.66364965    -0.01170
Br699      Br  0.56665494  0.61278557  0.68410500    -0.01130
Br700      Br  0.62048238  0.57699357  0.58466526    -0.01120
C701        C  0.84351867  0.32139059  0.87478121    -0.02240
C702        C  0.81151905  0.34474433  0.83994734     0.07440
C703        C  0.77868484  0.30579795  0.81670189    -0.02350
C704        C  0.77554532  0.25455142  0.83120457    -0.02360
C705        C  0.82055750  0.23096642  0.84839213     0.07570
C706        C  0.85568662  0.26890671  0.87079655    -0.02550
Br707      Br  0.92035904  0.25320497  0.90024237    -0.01100
Br708      Br  0.87044073  0.35636755  0.93093473    -0.01170
Br709      Br  0.70394917  0.22847675  0.84033123    -0.01130
Br710      Br  0.73369403  0.31272342  0.76433149    -0.01120
C711        C  0.78689823  0.48760014  0.78650710    -0.02240
C712        C  0.77387573  0.43984418  0.80906496     0.07440
C713        C  0.71720196  0.43040707  0.81544214    -0.02350
C714        C  0.68005708  0.46509247  0.79791313    -0.02360
C715        C  0.69580044  0.50732606  0.76744032     0.07570
C716        C  0.75075677  0.51147230  0.75803613    -0.02550
Br717      Br  0.77878157  0.52692949  0.69537533    -0.01100
Br718      Br  0.85444074  0.52424535  0.78715099    -0.01170
Br719      Br  0.60675291  0.44990598  0.81494407    -0.01130
Br720      Br  0.68638572  0.37366803  0.85144934    -0.01120
C721        C  0.92982037  0.48140527  0.90786932    -0.02240
C722        C  0.89617480  0.51265475  0.93532847     0.07440
C723        C  0.84284719  0.50600487  0.92157639    -0.02350
C724        C  0.82372688  0.46201437  0.89822423    -0.02360
C725        C  0.85441144  0.43894871  0.86190673     0.07570
C726        C  0.91038235  0.45666190  0.86548580    -0.02550
Br727      Br  0.96087411  0.47405935  0.81490014    -0.01100
Br728      Br  0.00388481  0.47275240  0.92185003    -0.01170
Br729      Br  0.75937960  0.43306615  0.92558020    -0.01130
Br730      Br  0.79594651  0.55776374  0.92217152    -0.01120
C731        C  0.87454534  0.63380560  0.50965247    -0.02240
C732        C  0.87187305  0.58045948  0.50646286     0.07440
C733        C  0.82806199  0.55714312  0.53134256    -0.02350
C734        C  0.78845198  0.58496012  0.55515170    -0.02360
C735        C  0.79072632  0.63951547  0.55878844     0.07570
C736        C  0.84040183  0.66135828  0.54077771    -0.02550
Br737      Br  0.86039851  0.73081851  0.55024681    -0.01100
Br738      Br  0.90515480  0.67022801  0.45659223    -0.01170
Br739      Br  0.73496963  0.54144320  0.58432990    -0.01130
Br740      Br  0.81731762  0.48496704  0.52629588    -0.01120
C741        C  0.98533958  0.77269312  0.00303145    -0.02240
C742        C  0.00035046  0.75285193  0.95807191     0.07440
C743        C  0.97926071  0.77154660  0.91551484    -0.02350
C744        C  0.94682839  0.81127047  0.91906140    -0.02360
C745        C  0.95082921  0.83969970  0.96056244     0.07570
C746        C  0.95656742  0.81540263  0.00375931    -0.02550
Br747      Br  0.94395334  0.85148377  0.56213622    -0.01100
Br748      Br  0.00434842  0.74427228  0.56300141    -0.01170
Br749      Br  0.91357142  0.83683578  0.86392735    -0.01130
Br750      Br  0.99855332  0.74915139  0.85215699    -0.01120
C751        C  0.57230611  0.31945813  0.77367991    -0.02240
C752        C  0.58656713  0.34390239  0.73053857     0.07440
C753        C  0.62102356  0.32225705  0.69698073    -0.02350
C754        C  0.63126854  0.27236430  0.70246411    -0.02360
C755        C  0.60411481  0.24559053  0.73902401     0.07570
C756        C  0.58529155  0.27053858  0.77915630    -0.02550
Br757      Br  0.56470245  0.23424191  0.83633381    -0.01100
Br758      Br  0.52779752  0.34761767  0.82208407    -0.01170
Br759      Br  0.67531386  0.23943538  0.65630941    -0.01130
Br760      Br  0.64617201  0.35537973  0.63892924    -0.01120
C761        C  0.22738811  0.75823581  0.66934576    -0.02240
C762        C  0.26150197  0.72827103  0.69660018     0.07440
C763        C  0.29215556  0.76052791  0.72893331    -0.02350
C764        C  0.30035079  0.81367801  0.72204634    -0.02360
C765        C  0.25873660  0.84294876  0.70387138     0.07570
C766        C  0.21839861  0.80910194  0.68279522    -0.02550
Br767      Br  0.14688565  0.82569090  0.67290116    -0.01100
Br768      Br  0.19454971  0.73887546  0.60919344    -0.01170
Br769      Br  0.37055041  0.83704872  0.74114341    -0.01130
Br770      Br  0.31631561  0.73997459  0.79029148    -0.01120
C771        C  0.15852848  0.66931937  0.74520437    -0.02240
C772        C  0.21497278  0.66285756  0.74745632     0.07440
C773        C  0.23373118  0.65573368  0.79446341    -0.02350
C774        C  0.20405304  0.66909707  0.83394484    -0.02360
C775        C  0.14954843  0.66018486  0.83098563     0.07570
C776        C  0.12609652  0.66040152  0.78620170    -0.02550
Br777      Br  0.04995827  0.64911604  0.78152206    -0.01100
Br778      Br  0.11992817  0.68327500  0.68888082    -0.01170
Br779      Br  0.23938812  0.68324854  0.89374027    -0.01130
Br780      Br  0.27175580  0.60062843  0.81256694    -0.01120
C781        C  0.22046197  0.60925405  0.57424156    -0.02240
C782        C  0.17748143  0.57261158  0.58290979     0.07440
C783        C  0.16089496  0.56804073  0.63230133    -0.02350
C784        C  0.19063041  0.59224439  0.66881867    -0.02360
C785        C  0.22548755  0.63581666  0.65977142     0.07570
C786        C  0.24329446  0.64043906  0.61137054    -0.02550
Br787      Br  0.30688279  0.68280566  0.59661154    -0.01100
Br788      Br  0.25101174  0.61813976  0.51151490    -0.01170
Br789      Br  0.18872192  0.55525565  0.72880805    -0.01130
Br790      Br  0.09872915  0.53001057  0.65816083    -0.01120
C791        C  0.28545359  0.25883507  0.98795804    -0.02240
C792        C  0.31534403  0.22787505  0.95659399     0.07440
C793        C  0.33924503  0.25685917  0.91816686    -0.02350
C794        C  0.34908229  0.31011607  0.92299541    -0.02360
C795        C  0.31380144  0.34037671  0.95004138     0.07570
C796        C  0.27487469  0.30902725  0.97480188    -0.02550
Br797      Br  0.20112932  0.31995504  0.96574476    -0.01100
Br798      Br  0.25406226  0.23534019  0.04700340    -0.01170
Br799      Br  0.41327953  0.33479723  0.89256965    -0.01130
Br800      Br  0.34523132  0.23110795  0.85379055    -0.01120
C801        C  0.24177055  0.42102810  0.52609455    -0.02240
C802        C  0.26422408  0.42448470  0.97828819     0.07440
C803        C  0.23421703  0.45563474  0.94956963    -0.02350
C804        C  0.20776673  0.49677820  0.96823696    -0.02360
C805        C  0.19221490  0.49962845  0.51772485     0.07570
C806        C  0.20900153  0.45888911  0.54547402    -0.02550
Br807      Br  0.19007223  0.45424383  0.61237395    -0.01100
Br808      Br  0.24921591  0.36399359  0.56753461    -0.01570
Br809      Br  0.20252062  0.54852989  0.92115333    -0.01130
Br810      Br  0.21138301  0.43369125  0.88733684    -0.01120
C811        C  0.35994409  0.40414027  0.54231872    -0.02240
C812        C  0.36883401  0.41235872  0.49300908     0.07440
C813        C  0.42362756  0.43138062  0.48243713    -0.02350
C814        C  0.46043333  0.44053567  0.52060233    -0.02360
C815        C  0.44862065  0.42082383  0.56631312     0.07570
C816        C  0.40105886  0.39084423  0.57084511    -0.02550
Br817      Br  0.38130402  0.35208269  0.62668430    -0.01100
Br818      Br  0.33720344  0.46089786  0.57745606    -0.01170
Br819      Br  0.52827417  0.47691722  0.51037825    -0.01130
Br820      Br  0.45489639  0.44726215  0.92047219    -0.01120
C821        C  0.36437743  0.44234645  0.82387155    -0.02240
C822        C  0.37815019  0.49571467  0.82776252     0.07440
C823        C  0.36312616  0.51720860  0.87270184    -0.02350
C824        C  0.34513759  0.48741795  0.91258804    -0.02360
C825        C  0.33412895  0.43403741  0.90915719     0.07570
C826        C  0.33604002  0.41511249  0.86122418    -0.02550
Br827      Br  0.29245143  0.35623512  0.84128293    -0.01100
Br828      Br  0.38332527  0.39989494  0.77036852    -0.01170
Br829      Br  0.34138516  0.52245114  0.97349297    -0.01130
Br830      Br  0.37268029  0.58838736  0.88471678    -0.01120
C831        C  0.38472864  0.62318918  0.75832266    -0.02240
C832        C  0.37505864  0.56916133  0.76134143     0.07440
C833        C  0.33385015  0.55067473  0.73076796    -0.02350
C834        C  0.30691516  0.58277427  0.70134392    -0.02360
C835        C  0.30661185  0.63542134  0.70971177     0.07570
C836        C  0.35515580  0.65370339  0.72848551    -0.02550
Br837      Br  0.39463297  0.70745215  0.69567371    -0.01100
Br838      Br  0.42266741  0.66449486  0.80235444    -0.01170
Br839      Br  0.31535571  0.56102570  0.63700861    -0.01130
Br840      Br  0.30886673  0.48186173  0.72647550    -0.01120
C841        C  0.05541755  0.30617565  0.50351539    -0.02240
C842        C  0.04081790  0.32881413  0.54647454     0.07440
C843        C  0.04439674  0.30413631  0.58971831    -0.02350
C844        C  0.07384185  0.26307161  0.59198011    -0.02360
C845        C  0.07993451  0.23536833  0.54976116     0.07570
C846        C  0.06979607  0.25673451  0.50505068    -0.02550
Br847      Br  0.06706713  0.21784927  0.44727991    -0.01100
Br848      Br  0.05180188  0.34045233  0.44368015    -0.01170
Br849      Br  0.09164927  0.23991925  0.65463694    -0.01130
Br850      Br  0.99616874  0.31691697  0.64146245    -0.01120
C851        C  0.86580255  0.42050570  0.68723091    -0.02240
C852        C  0.92050388  0.42188076  0.69147086     0.07440
C853        C  0.94191270  0.39990050  0.73088515    -0.02350
C854        C  0.90836406  0.38421862  0.76971980    -0.02360
C855        C  0.85441710  0.39847000  0.77244037     0.07570
C856        C  0.83229187  0.40845779  0.72618382    -0.02550
Br857      Br  0.75799013  0.40597784  0.70795567    -0.01100
Br858      Br  0.83646369  0.43575114  0.62658445    -0.01170
Br859      Br  0.94272731  0.34832142  0.81788848    -0.01130
Br860      Br  0.01828113  0.39602459  0.73338256    -0.01120
C861        C  0.53425555  0.76175436  0.77622727    -0.02240
C862        C  0.52370026  0.74346800  0.82303609     0.07440
C863        C  0.48647027  0.76648354  0.85308517    -0.02350
C864        C  0.46173267  0.80751707  0.83645538    -0.02360
C865        C  0.48275487  0.83129247  0.79555236     0.07570
C866        C  0.51042442  0.80433285  0.76172914    -0.02550
Br867      Br  0.52293452  0.83205724  0.69897369    -0.01100
Br868      Br  0.58326639  0.73291316  0.73210162    -0.01170
Br869      Br  0.40632434  0.83645408  0.87382854    -0.01130
Br870      Br  0.47186309  0.74639611  0.91847183    -0.01120
C871        C  0.64258159  0.67418621  0.54116904    -0.02240
C872        C  0.69682096  0.66100935  0.53517574     0.07440
C873        C  0.71164354  0.64592200  0.98780647    -0.02350
C874        C  0.67314114  0.62726193  0.95616020    -0.02360
C875        C  0.61954192  0.62639377  0.96933606     0.07570
C876        C  0.60410766  0.65558343  0.00844109    -0.02550
Br877      Br  0.52989771  0.66542105  0.02005093    -0.01100
Br878      Br  0.61708614  0.71179347  0.59587496    -0.01170
Br879      Br  0.69237118  0.61802502  0.88924390    -0.01130
Br880      Br  0.77545987  0.67303103  0.95572333    -0.01120
loop_ 
_geom_bond_atom_site_label_1 
_geom_bond_atom_site_label_2 
_geom_bond_distance 
_geom_bond_site_symmetry_2 
_ccdc_geom_bond_type 
In1           O3   2.203       .  S
In1           O4   2.227       .  S
In1          O12   2.146       .  S
In1           O6   2.215       .  S
In1           O8   2.246       .  S
In1           O9   2.292       .  S
In1          O10   2.231       .  S
In1          O13   2.233       .  S
C2            O8   1.258       .  A
C2           O10   1.261       .  A
C2           C59   1.524       .  S
O3           C11   1.250       .  A
O4           C11   1.266       .  A
C5           O12   1.259       .  A
C5            O6   1.259       .  A
C5          C422   1.455       .  S
C7            O9   1.261       .  A
C7           O13   1.254       .  A
C7           C27   1.535       .  S
C11         C435   1.456       .  S
In14         O16   2.172   1_455  S
In14         O17   2.282   1_455  S
In14         O25   2.104       .  S
In14         O19   2.210   1_455  S
In14         O21   2.230   1_455  S
In14         O22   2.245       .  S
In14         O23   2.223   1_455  S
In14         O26   2.284       .  S
C15          O21   1.261       .  A
C15          O23   1.264       .  A
C15         C497   1.523   1_554  S
O16          C24   1.249       .  A
O17          C24   1.263       .  A
C18          O25   1.266       .  A
C18          O19   1.271   1_455  A
C18         C402   1.431       .  S
C20          O22   1.269       .  A
C20          O26   1.247       .  A
C20          C29   1.527       .  S
C24         C412   1.465       .  S
C27          C32   1.537       .  S
C27         C382   1.627       .  S
C27         C392   1.619       .  S
C28         C355   1.650       .  S
C28         C362   1.662       .  S
C28         C385   1.628       .  S
C28         C812   1.629       .  S
C29         C342   1.607       .  S
C29         C365   1.624       .  S
C29         C485   1.525       .  S
C30         C322   1.661       .  S
C30         C332   1.588       .  S
C30         C345   1.598       .  S
C30         C395   1.640       .  S
In31         O33   2.207       .  S
In31         O34   2.328       .  S
In31         O42   2.144       .  S
In31         O36   2.184       .  S
In31         O38   2.229       .  S
In31         O39   2.290       .  S
In31         O40   2.286       .  S
In31         O43   2.221       .  S
C32          O38   1.265       .  A
C32          O40   1.272       .  A
O33          C41   1.262       .  A
O34          C41   1.266       .  A
C35          O42   1.253       .  A
C35          O36   1.265       .  A
C35         C312   1.438       .  S
C37          O39   1.274       .  A
C37          O43   1.257       .  A
C37         C375   1.502       .  S
C41          C59   1.551       .  S
In44         O46   2.230   1_455  S
In44         O47   2.274   1_455  S
In44         O55   2.107       .  S
In44         O49   2.200       .  S
In44         O51   2.261       .  S
In44         O52   2.220       .  S
In44         O53   2.206       .  S
In44         O56   2.187       .  S
C45          O51   1.264       .  A
C45          O53   1.270       .  A
C45         C469   1.525       .  S
O46          C54   1.267       .  A
O47          C54   1.265       .  A
C48          O55   1.256       .  A
C48          O49   1.267       .  A
C48         C302   1.446       .  S
C50          O52   1.267       .  A
C50          O56   1.256       .  A
C50         C335   1.457       .  S
C54          C57   1.538       .  S
C57         C282   1.614       .  S
C57         C455   1.523       .  S
C57         C732   1.625       .  S
C58         C262   1.679       .  S
C58         C272   1.655       .  S
C58         C285   1.645       .  S
C58         C415   1.601       .  S
C59         C255   1.610       .  S
C59         C275   1.634       .  S
C60         C242   1.703       .  S
C60         C252   1.644       .  S
C60         C295   1.670       .  S
C60         C432   1.568       .  S
In61         O63   2.199       .  S
In61         O64   2.253       .  S
In61         O72   2.175   1_455  S
In61         O66   2.149       .  S
In61         O69   2.282   1_565  S
In61         O70   2.252       .  S
In61         O73   2.210   1_455  S
In61        O508   2.222       .  S
C62          O70   1.258       .  A
C62         O508   1.259       .  A
C62         C557   1.517   1_565  S
O63          C71   1.261       .  A
O64          C71   1.272       .  A
C65          O72   1.265       .  A
C65          O66   1.272   1_655  A
C65         C305   1.448       .  S
C67          O69   1.275   1_655  A
C67          O73   1.246   1_545  A
C67          C87   1.519       .  S
O68        In501   2.222   1_554  S
O68         C502   1.259       .  A
C71         C235   1.482       .  S
In74         O76   2.237       .  S
In74         O77   2.271       .  S
In74         O85   2.151       .  S
In74         O79   2.169       .  S
In74         O81   2.269       .  S
In74         O82   2.286       .  S
In74         O83   2.245       .  S
In74         O86   2.259       .  S
C75          O81   1.259       .  A
C75          O83   1.262       .  A
C75         C119   1.536       .  S
O76          C84   1.256       .  A
O77          C84   1.265       .  A
C78          O85   1.262       .  A
C78          O79   1.269       .  A
C78         C315   1.443       .  S
C80          O82   1.271       .  A
C80          O86   1.239       .  A
C80          C89   1.520       .  S
C84         C222   1.480       .  S
C87         C202   1.611       .  S
C87         C545   1.522       .  S
C87         C652   1.622       .  S
C88         C185   1.631       .  S
C88         C195   1.626       .  S
C88         C205   1.620       .  S
C88         C265   1.679       .  S
C89          C92   1.534       .  S
C89         C172   1.577       .  S
C89         C182   1.612       .  S
C90         C162   1.612       .  S
C90         C175   1.595       .  S
C90         C215   1.625       .  S
C90         C245   1.646       .  S
In91         O93   2.305       .  S
In91         O94   2.183   1_565  S
In91        O102   2.167       .  S
In91         O96   2.180       .  S
In91         O98   2.228       .  S
In91         O99   2.246       .  S
In91        O100   2.257   1_565  S
In91        O103   2.216       .  S
C92          O98   1.265   1_545  A
C92         O100   1.263       .  A
O93         C101   1.258   1_565  A
O94         C101   1.263       .  A
C95         O102   1.255       .  A
C95          O96   1.266       .  A
C95         C425   1.444       .  S
C97          O99   1.266       .  A
C97         O103   1.256       .  A
C97         C165   1.475       .  S
C101        C119   1.526       .  S
In104       O106   2.241       .  S
In104       O107   2.280       .  S
In104       O115   2.187       .  S
In104       O109   2.178       .  S
In104       O111   2.258   1_455  S
In104       O112   2.336       .  S
In104       O113   2.236   1_455  S
In104       O116   2.255   1_455  S
C105        O111   1.253       .  A
C105        O113   1.268       .  A
C105        C527   1.522   1_554  S
O106        C114   1.251       .  A
O107        C114   1.268       .  A
C108        O115   1.267       .  A
C108        O109   1.263       .  A
C108        C405   1.433       .  S
C110        O112   1.265   1_655  A
C110        O116   1.248       .  A
C110        C192   1.517       .  S
C114        C117   1.544       .  S
C117        C142   1.590   1_545  S
C117        C152   1.614       .  S
C117        C502   1.517   1_545  S
C118        C132   1.634       .  S
C118        C145   1.624       .  S
C118        C232   1.608       .  S
C118        C325   1.679       .  S
C119        C125   1.610       .  S
C119        C135   1.608       .  S
C120        C122   1.635       .  S
C120        C155   1.635       .  S
C120        C352   1.640       .  S
C120        C665   1.640       .  S
C121        C122   1.432       .  A
C121        C126   1.432       .  A
C121       Br128   1.922       .  S
C122        C123   1.452       .  A
C123        C124   1.410       .  A
C123       Br130   1.917       .  S
C124        C125   1.404       .  A
C124       Br129   1.940       .  S
C125        C126   1.433       .  A
C126       Br127   1.908       .  S
C131        C132   1.467       .  A
C131        C136   1.424   1_565  A
C131       Br138   1.938   1_565  S
C132        C133   1.429       .  A
C133        C134   1.441       .  A
C133       Br140   1.946       .  S
C134        C135   1.443   1_565  A
C134       Br139   1.927       .  S
C135        C136   1.404       .  A
C136       Br137   1.948       .  S
C141        C142   1.454       .  A
C141        C146   1.435       .  A
C141       Br148   1.939       .  S
C142        C143   1.422   1_565  A
C143        C144   1.394   1_545  A
C143       Br150   1.939       .  S
C144        C145   1.425       .  A
C144       Br149   1.906   1_565  S
C145        C146   1.423       .  A
C146       Br147   1.933       .  S
C151        C152   1.437   1_556  A
C151        C596   1.437       .  A
C151       Br158   1.942       .  S
C152        C153   1.421       .  A
C153        C154   1.425   1_554  A
C153       Br160   1.929   1_545  S
C154        C595   1.461       .  A
C154       Br159   1.970       .  S
C155        C156   1.437       .  A
C155        C594   1.461       .  A
C156        C591   1.437       .  A
C156       Br157   1.940       .  S
C161        C162   1.465       .  A
C161        C606   1.419       .  A
C161       Br168   1.953       .  S
C162        C603   1.424   1_554  A
C163        C164   1.388       .  A
C163        C602   1.424       .  A
C163       Br170   1.926       .  S
C164        C165   1.405       .  A
C164       Br169   1.930       .  S
C165        C166   1.406       .  A
C166        C601   1.419       .  A
C166       Br167   1.936       .  S
C171        C172   1.427   1_565  A
C171        C176   1.418       .  A
C171       Br178   1.933       .  S
C172        C173   1.430       .  A
C173        C174   1.411   1_545  A
C173       Br180   1.960       .  S
C174        C175   1.449       .  A
C174       Br179   1.942   1_565  S
C175        C176   1.430       .  A
C176       Br177   1.920       .  S
C181        C182   1.416       .  A
C181        C186   1.403       .  A
C181       Br188   1.907       .  S
C182        C183   1.426       .  A
C183        C184   1.427       .  A
C183       Br190   1.910       .  S
C184        C185   1.436       .  A
C184       Br189   1.935       .  S
C185        C186   1.444       .  A
C186       Br187   1.937       .  S
C191        C192   1.413       .  A
C191        C196   1.423       .  A
C191       Br198   1.945       .  S
C192        C193   1.407       .  A
C193        C194   1.431       .  A
C193       Br200   1.939   1_655  S
C194        C195   1.454       .  A
C194       Br199   1.929       .  S
C195        C196   1.447       .  A
C196       Br197   1.923       .  S
C201        C202   1.450       .  A
C201        C206   1.442       .  A
C201       Br208   1.925       .  S
C202        C203   1.434       .  A
C203        C204   1.393       .  A
C203       Br210   1.943       .  S
C204        C205   1.431       .  A
C204       Br209   1.934       .  S
C205        C206   1.432       .  A
C206       Br207   1.949       .  S
C211        C652   1.441   1_565  A
C211        C656   1.434       .  A
C211       Br218   1.909       .  S
C212        C527   1.622   1_554  S
C212        C213   1.436       .  A
C212        C651   1.441   1_544  A
C213        C214   1.421   1_545  A
C213       Br220   1.932       .  S
C214        C215   1.435       .  A
C214       Br219   1.945       .  S
C215        C216   1.419       .  A
C216        C651   1.434   1_554  A
C216       Br657   1.936   1_554  S
Br217       C656   1.936       .  S
C221        C222   1.383       .  A
C221        C226   1.399       .  A
C221       Br228   1.923       .  S
C222        C223   1.403       .  A
C223        C224   1.431       .  A
C223       Br230   1.934       .  S
C224        C225   1.450       .  A
C224       Br229   1.915       .  S
C225        C560   1.640   1_554  S
C225        C226   1.422       .  A
C226       Br227   1.913       .  S
C231        C232   1.463       .  A
C231        C236   1.423       .  A
C231       Br238   1.933       .  S
C232        C233   1.446       .  A
C233        C234   1.408       .  A
C233       Br240   1.921       .  S
C234        C235   1.397       .  A
C234       Br239   1.950       .  S
C235        C236   1.396       .  A
C236       Br237   1.945       .  S
C241        C242   1.463       .  A
C241        C246   1.458       .  A
C241       Br248   1.914       .  S
C242        C243   1.475       .  A
C243        C244   1.416       .  A
C243       Br690   1.937   1_554  S
C244        C245   1.424       .  A
C244       Br689   1.932       .  S
C245        C246   1.442       .  A
C246       Br247   1.914       .  S
Br249       C684   1.932       .  S
Br250       C683   1.937       .  S
C251        C252   1.450       .  A
C251        C256   1.446       .  A
C251       Br258   1.946       .  S
C252        C253   1.464       .  A
C253        C254   1.391       .  A
C253       Br260   1.963       .  S
C254        C255   1.412       .  A
C254       Br259   1.947       .  S
C255        C256   1.419       .  A
C256       Br257   1.927       .  S
C261        C262   1.452       .  A
C261        C266   1.463       .  A
C261       Br268   1.936       .  S
C262        C263   1.449       .  A
C263        C264   1.434       .  A
C263       Br270   1.892       .  S
C264        C265   1.431       .  A
C264       Br269   1.912       .  S
C265        C266   1.452       .  A
C266       Br267   1.919       .  S
C271        C272   1.450       .  A
C271        C276   1.413       .  A
C271       Br278   1.915       .  S
C272        C273   1.448       .  A
C273        C274   1.459       .  A
C273       Br280   1.947       .  S
C274        C275   1.456       .  A
C274       Br279   1.925       .  S
C275        C276   1.408       .  A
C276       Br277   1.922       .  S
C281        C282   1.441       .  A
C281        C286   1.434       .  A
C281       Br288   1.950   1_655  S
C282        C283   1.409       .  A
C283        C284   1.406       .  A
C283       Br290   1.884       .  S
C284        C285   1.430       .  A
C284       Br289   1.909       .  S
C285        C286   1.469       .  A
C286       Br287   1.932       .  S
C291        C292   1.430       .  A
C291        C296   1.448       .  A
C291       Br298   1.912   1_554  S
C292        C497   1.625   1_554  S
C292        C293   1.413       .  A
C293        C294   1.439       .  A
C293       Br300   1.941       .  S
C294        C295   1.463       .  A
C294       Br299   1.907       .  S
C295        C296   1.437       .  A
C296       Br297   1.915       .  S
C301        C302   1.419   1_655  A
C301        C306   1.396       .  A
C301       Br748   1.935   1_655  S
C302        C303   1.425   1_455  A
C303        C304   1.388       .  A
C303       Br310   1.934       .  S
C304        C305   1.386       .  A
C304       Br309   1.927       .  S
C305        C306   1.396       .  A
C306       Br747   1.926       .  S
Br307       C746   1.926       .  S
Br308       C741   1.935   1_455  S
C311        C312   1.412       .  A
C311        C316   1.384       .  A
C311       Br318   1.928       .  S
C312        C313   1.417       .  A
C313        C314   1.390       .  A
C313       Br320   1.940       .  S
C314        C315   1.401       .  A
C314       Br319   1.937       .  S
C315        C316   1.396       .  A
C316       Br317   1.930       .  S
C321        C322   1.450       .  A
C321        C326   1.443       .  A
C321       Br328   1.945       .  S
C322        C323   1.447       .  A
C323        C324   1.441       .  A
C323       Br330   1.934       .  S
C324        C325   1.456       .  A
C324       Br329   1.927       .  S
C325        C326   1.451       .  A
C326       Br327   1.917       .  S
C331        C332   1.452       .  A
C331        C336   1.414       .  A
C331       Br338   1.925       .  S
C332        C333   1.428       .  A
C333        C334   1.384       .  A
C333       Br340   1.894       .  S
C334        C335   1.388       .  A
C334       Br339   1.937       .  S
C335        C336   1.399       .  A
C336       Br337   1.937       .  S
C341        C342   1.436       .  A
C341        C346   1.435       .  A
C341       Br348   1.919       .  S
C342        C343   1.444       .  A
C343        C344   1.409       .  A
C343       Br350   1.950       .  S
C344        C345   1.439       .  A
C344       Br349   1.960       .  S
C345        C346   1.426       .  A
C346       Br347   1.948       .  S
C351        C352   1.442       .  A
C351        C356   1.442       .  A
C351       Br358   1.918       .  S
C352        C353   1.436       .  A
C353        C354   1.439       .  A
C353       Br360   1.933       .  S
C354        C355   1.445       .  A
C354       Br359   1.904       .  S
C355        C356   1.427       .  A
C356       Br357   1.929       .  S
C361        C366   1.448       .  A
C361        C802   1.448   1_554  A
C361       Br368   1.951       .  S
C362        C363   1.429       .  A
C362        C801   1.448       .  A
C363        C364   1.418       .  A
C363       Br370   1.923       .  S
C364        C805   1.439       .  A
C364       Br369   1.938       .  S
C365        C366   1.439       .  A
C365        C804   1.439   1_554  A
C366       Br367   1.931       .  S
C371        C372   1.414   1_554  A
C371        C376   1.390       .  A
C371       Br378   1.919       .  S
C372        C468   1.629       .  S
C372        C373   1.471       .  A
C373        C374   1.440   1_556  A
C373       Br820   1.936       .  S
C374        C375   1.411       .  A
C374       Br379   1.936       .  S
C375        C376   1.407       .  A
C376       Br377   1.929       .  S
Br380       C813   1.936       .  S
C381        C382   1.454       .  A
C381        C386   1.437       .  A
C381       Br388   1.946       .  S
C382        C383   1.436       .  A
C383        C384   1.431       .  A
C383       Br390   1.935       .  S
C384        C385   1.443       .  A
C384       Br389   1.945       .  S
C385        C386   1.433       .  A
C386       Br387   1.949       .  S
C391        C392   1.457       .  A
C391        C396   1.430       .  A
C391       Br398   1.884       .  S
C392        C393   1.423       .  A
C393        C394   1.413       .  A
C393       Br400   1.914       .  S
C394        C395   1.429       .  A
C394       Br399   1.903       .  S
C395        C396   1.402       .  A
C396       Br397   1.931       .  S
C401        C402   1.398       .  A
C401        C406   1.399       .  A
C401       Br408   1.928   1_554  S
C402        C403   1.395       .  A
C403        C404   1.372       .  A
C403       Br410   1.922   1_455  S
C404        C405   1.403       .  A
C404       Br409   1.940       .  S
C405        C406   1.418       .  A
C406       Br407   1.918   1_554  S
C411        C412   1.389       .  A
C411        C416   1.398       .  A
C411       Br418   1.926       .  S
C412        C413   1.393       .  A
C413        C414   1.419       .  A
C413       Br420   1.944   1_655  S
C414        C415   1.442       .  A
C414       Br419   1.920       .  S
C415        C416   1.456       .  A
C416       Br417   1.954       .  S
C421        C422   1.421       .  A
C421        C426   1.393       .  A
C421       Br428   1.928       .  S
C422        C423   1.420       .  A
C423        C424   1.390       .  A
C423       Br430   1.939       .  S
C424        C425   1.398       .  A
C424       Br429   1.934       .  S
C425        C426   1.393       .  A
C426       Br427   1.930       .  S
C431        C432   1.446       .  A
C431        C876   1.414       .  A
C431       Br438   1.951       .  S
C432        C873   1.435   1_554  A
C433        C434   1.395       .  A
C433        C872   1.435       .  A
C433       Br440   1.937       .  S
C434        C435   1.398       .  A
C434       Br439   1.948       .  S
C435        C436   1.405       .  A
C436        C871   1.414       .  A
C436       Br437   1.934       .  S
In441       O443   2.203       .  S
In441       O444   2.227       .  S
In441       O452   2.146       .  S
In441       O446   2.215       .  S
In441       O448   2.246       .  S
In441       O449   2.292       .  S
In441       O450   2.231       .  S
In441       O453   2.233       .  S
C442        O448   1.258       .  A
C442        O450   1.261       .  A
C442        C499   1.524       .  S
O443        C451   1.250       .  A
O444        C451   1.266       .  A
C445        O452   1.259       .  A
C445        O446   1.259       .  A
C445        C862   1.455       .  S
C447        O449   1.261       .  A
C447        O453   1.254       .  A
C447        C467   1.535       .  S
C451        C875   1.456       .  S
In454       O456   2.172   1_455  S
In454       O457   2.282   1_455  S
In454       O465   2.104       .  S
In454       O459   2.210   1_455  S
In454       O461   2.231   1_455  S
In454       O462   2.245       .  S
In454       O463   2.223   1_455  S
In454       O466   2.284       .  S
C455        O461   1.261       .  A
C455        O463   1.264       .  A
O456        C464   1.249       .  A
O457        C464   1.263       .  A
C458        O465   1.266       .  A
C458        O459   1.271   1_455  A
C458        C842   1.431       .  S
C460        O462   1.269       .  A
C460        O466   1.247       .  A
C460        C469   1.527       .  S
C464        C852   1.465       .  S
C467        C472   1.537       .  S
C467        C822   1.627       .  S
C467        C832   1.619       .  S
C468        C795   1.650       .  S
C468        C802   1.662       .  S
C468        C825   1.628       .  S
C469        C782   1.607       .  S
C469        C805   1.624       .  S
C470        C762   1.661       .  S
C470        C772   1.588       .  S
C470        C785   1.598       .  S
C470        C835   1.640       .  S
In471       O473   2.207       .  S
In471       O474   2.328       .  S
In471       O482   2.144       .  S
In471       O476   2.184       .  S
In471       O478   2.229       .  S
In471       O479   2.290       .  S
In471       O480   2.286       .  S
In471       O483   2.221       .  S
C472        O478   1.265       .  A
C472        O480   1.272       .  A
O473        C481   1.262       .  A
O474        C481   1.266       .  A
C475        O482   1.253       .  A
C475        O476   1.265       .  A
C475        C752   1.438       .  S
C477        O479   1.274       .  A
C477        O483   1.257       .  A
C477        C815   1.502       .  S
C481        C499   1.551       .  S
In484       O486   2.230   1_455  S
In484       O487   2.274   1_455  S
In484       O495   2.107       .  S
In484       O489   2.200       .  S
In484       O491   2.261   1_556  S
In484       O492   2.220       .  S
In484       O493   2.206       .  S
In484       O496   2.187       .  S
C485        O491   1.264       .  A
C485        O493   1.270   1_554  A
O486        C494   1.267       .  A
O487        C494   1.265       .  A
C488        O495   1.256       .  A
C488        O489   1.267       .  A
C488        C742   1.446       .  S
C490        O492   1.267       .  A
C490        O496   1.256       .  A
C490        C775   1.457       .  S
C494        C497   1.538       .  S
C497        C722   1.614       .  S
C498        C702   1.679       .  S
C498        C712   1.655       .  S
C498        C725   1.645       .  S
C498        C855   1.601       .  S
C499        C695   1.610       .  S
C499        C715   1.634       .  S
C500        C682   1.703       .  S
C500        C692   1.644       .  S
C500        C735   1.670       .  S
C500        C872   1.568       .  S
In501       O503   2.199       .  S
In501       O504   2.253       .  S
In501       O512   2.175   1_455  S
In501       O506   2.149       .  S
In501       O509   2.282   1_565  S
In501       O510   2.252       .  S
In501       O513   2.210   1_455  S
C502        O510   1.258   1_554  A
O503        C511   1.261       .  A
O504        C511   1.272       .  A
C505        O512   1.265       .  A
C505        O506   1.272   1_655  A
C505        C745   1.448       .  S
C507        O509   1.275   1_655  A
C507        O513   1.246   1_545  A
C507        C527   1.519       .  S
C511        C675   1.482       .  S
In514       O516   2.237       .  S
In514       O517   2.271       .  S
In514       O525   2.151       .  S
In514       O519   2.169       .  S
In514       O521   2.269       .  S
In514       O522   2.286       .  S
In514       O523   2.245       .  S
In514       O526   2.259       .  S
C515        O521   1.259       .  A
C515        O523   1.262       .  A
C515        C559   1.536       .  S
O516        C524   1.256       .  A
O517        C524   1.265       .  A
C518        O525   1.262       .  A
C518        O519   1.269       .  A
C518        C755   1.443       .  S
C520        O522   1.271       .  A
C520        O526   1.239       .  A
C520        C529   1.520       .  S
C524        C662   1.480       .  S
C527        C642   1.611       .  S
C528        C625   1.631       .  S
C528        C635   1.626       .  S
C528        C645   1.620       .  S
C528        C705   1.679       .  S
C529        C532   1.534       .  S
C529        C612   1.577       .  S
C529        C622   1.612       .  S
C530        C602   1.612       .  S
C530        C615   1.595       .  S
C530        C655   1.625       .  S
C530        C685   1.646       .  S
In531       O533   2.305       .  S
In531       O534   2.183   1_565  S
In531       O542   2.167       .  S
In531       O536   2.180       .  S
In531       O538   2.228       .  S
In531       O539   2.246       .  S
In531       O540   2.257   1_565  S
In531       O543   2.216       .  S
C532        O538   1.265   1_545  A
C532        O540   1.263       .  A
O533        C541   1.258   1_565  A
O534        C541   1.263       .  A
C535        O542   1.255       .  A
C535        O536   1.266       .  A
C535        C865   1.444       .  S
C537        O539   1.266       .  A
C537        O543   1.256       .  A
C537        C605   1.475       .  S
C541        C559   1.526       .  S
In544       O546   2.241       .  S
In544       O547   2.280       .  S
In544       O555   2.187       .  S
In544       O549   2.178       .  S
In544       O551   2.258   1_455  S
In544       O552   2.336       .  S
In544       O553   2.236   1_455  S
In544       O556   2.255   1_455  S
C545        O551   1.253       .  A
C545        O553   1.268       .  A
O546        C554   1.251       .  A
O547        C554   1.268       .  A
C548        O555   1.267       .  A
C548        O549   1.263       .  A
C548        C845   1.433       .  S
C550        O552   1.265   1_655  A
C550        O556   1.248       .  A
C550        C632   1.517       .  S
C554        C557   1.544       .  S
C557        C582   1.590   1_545  S
C557        C592   1.614       .  S
C558        C572   1.634       .  S
C558        C585   1.624       .  S
C558        C672   1.608       .  S
C558        C765   1.679       .  S
C559        C565   1.610       .  S
C559        C575   1.608       .  S
C560        C562   1.635       .  S
C560        C595   1.635       .  S
C560        C792   1.640       .  S
C561        C562   1.432       .  A
C561        C566   1.432       .  A
C561       Br568   1.922       .  S
C562        C563   1.452       .  A
C563        C564   1.410       .  A
C563       Br570   1.917       .  S
C564        C565   1.404       .  A
C564       Br569   1.940       .  S
C565        C566   1.433       .  A
C566       Br567   1.908       .  S
C571        C572   1.467       .  A
C571        C576   1.424   1_565  A
C571       Br578   1.938   1_565  S
C572        C573   1.429       .  A
C573        C574   1.441       .  A
C573       Br580   1.946       .  S
C574        C575   1.443   1_565  A
C574       Br579   1.927       .  S
C575        C576   1.404       .  A
C576       Br577   1.948       .  S
C581        C582   1.454       .  A
C581        C586   1.435       .  A
C581       Br588   1.939       .  S
C582        C583   1.422   1_565  A
C583        C584   1.394   1_545  A
C583       Br590   1.939       .  S
C584        C585   1.425       .  A
C584       Br589   1.906   1_565  S
C585        C586   1.423       .  A
C586       Br587   1.933       .  S
C591        C592   1.437       .  A
C591       Br598   1.942       .  S
C592        C593   1.421       .  A
C593        C594   1.425       .  A
C593       Br600   1.929   1_545  S
C594       Br599   1.970       .  S
C595        C596   1.437       .  A
C596       Br597   1.940       .  S
C601        C602   1.465       .  A
C601       Br608   1.953       .  S
C603        C604   1.388       .  A
C603       Br610   1.926       .  S
C604        C605   1.405       .  A
C604       Br609   1.930       .  S
C605        C606   1.406   1_556  A
C606       Br607   1.936       .  S
C611        C612   1.427   1_565  A
C611        C616   1.418       .  A
C611       Br618   1.933       .  S
C612        C613   1.430       .  A
C613        C614   1.411   1_545  A
C613       Br620   1.960       .  S
C614        C615   1.449       .  A
C614       Br619   1.942   1_565  S
C615        C616   1.430       .  A
C616       Br617   1.920       .  S
C621        C622   1.416       .  A
C621        C626   1.403       .  A
C621       Br628   1.907       .  S
C622        C623   1.426       .  A
C623        C624   1.427       .  A
C623       Br630   1.910       .  S
C624        C625   1.436       .  A
C624       Br629   1.935       .  S
C625        C626   1.444       .  A
C626       Br627   1.937       .  S
C631        C632   1.413       .  A
C631        C636   1.423       .  A
C631       Br638   1.945       .  S
C632        C633   1.407       .  A
C633        C634   1.431       .  A
C633       Br640   1.939   1_655  S
C634        C635   1.454       .  A
C634       Br639   1.929       .  S
C635        C636   1.447       .  A
C636       Br637   1.923       .  S
C641        C642   1.450       .  A
C641        C646   1.442       .  A
C641       Br648   1.925   1_556  S
C642        C643   1.434       .  A
C643        C644   1.393       .  A
C643       Br650   1.943       .  S
C644        C645   1.431       .  A
C644       Br649   1.934       .  S
C645        C646   1.432       .  A
C646       Br647   1.949       .  S
C651       Br658   1.909       .  S
C652        C653   1.436       .  A
C653        C654   1.421   1_545  A
C653       Br660   1.932       .  S
C654        C655   1.435       .  A
C654       Br659   1.945       .  S
C655        C656   1.419       .  A
C661        C662   1.383       .  A
C661        C666   1.399       .  A
C661       Br668   1.923       .  S
C662        C663   1.403       .  A
C663        C664   1.431       .  A
C663       Br670   1.934       .  S
C664        C665   1.450       .  A
C664       Br669   1.915       .  S
C665        C666   1.422       .  A
C666       Br667   1.913       .  S
C671        C672   1.463       .  A
C671        C676   1.423       .  A
C671       Br678   1.933       .  S
C672        C673   1.446       .  A
C673        C674   1.408       .  A
C673       Br680   1.921       .  S
C674        C675   1.397       .  A
C674       Br679   1.950       .  S
C675        C676   1.396       .  A
C676       Br677   1.945       .  S
C681        C682   1.463       .  A
C681        C686   1.458       .  A
C681       Br688   1.914       .  S
C682        C683   1.475       .  A
C683        C684   1.416       .  A
C684        C685   1.424       .  A
C685        C686   1.442       .  A
C686       Br687   1.914       .  S
C691        C692   1.450       .  A
C691        C696   1.446       .  A
C691       Br698   1.946       .  S
C692        C693   1.464       .  A
C693        C694   1.391       .  A
C693       Br700   1.963       .  S
C694        C695   1.412       .  A
C694       Br699   1.947       .  S
C695        C696   1.419       .  A
C696       Br697   1.927       .  S
C701        C702   1.452       .  A
C701        C706   1.463       .  A
C701       Br708   1.936       .  S
C702        C703   1.448       .  A
C703        C704   1.434       .  A
C703       Br710   1.892       .  S
C704        C705   1.432       .  A
C704       Br709   1.912       .  S
C705        C706   1.452       .  A
C706       Br707   1.919       .  S
C711        C712   1.450       .  A
C711        C716   1.413       .  A
C711       Br718   1.915       .  S
C712        C713   1.448       .  A
C713        C714   1.460       .  A
C713       Br720   1.947       .  S
C714        C715   1.456       .  A
C714       Br719   1.925       .  S
C715        C716   1.408       .  A
C716       Br717   1.922       .  S
C721        C722   1.441       .  A
C721        C726   1.434       .  A
C721       Br728   1.950   1_655  S
C722        C723   1.409       .  A
C723        C724   1.406       .  A
C723       Br730   1.884       .  S
C724        C725   1.430       .  A
C724       Br729   1.909       .  S
C725        C726   1.469       .  A
C726       Br727   1.932       .  S
C731        C732   1.430       .  A
C731        C736   1.448       .  A
C731       Br738   1.912       .  S
C732        C733   1.413       .  A
C733        C734   1.439       .  A
C733       Br740   1.941       .  S
C734        C735   1.463       .  A
C734       Br739   1.907       .  S
C735        C736   1.437       .  A
C736       Br737   1.915       .  S
C741        C742   1.419   1_654  A
C741        C746   1.396       .  A
C742        C743   1.425   1_455  A
C743        C744   1.388       .  A
C743       Br750   1.934       .  S
C744        C745   1.386       .  A
C744       Br749   1.927       .  S
C745        C746   1.396   1_556  A
C751        C752   1.412       .  A
C751        C756   1.384       .  A
C751       Br758   1.928       .  S
C752        C753   1.417       .  A
C753        C754   1.390       .  A
C753       Br760   1.940       .  S
C754        C755   1.401       .  A
C754       Br759   1.937       .  S
C755        C756   1.396       .  A
C756       Br757   1.930       .  S
C761        C762   1.450       .  A
C761        C766   1.443       .  A
C761       Br768   1.945       .  S
C762        C763   1.447       .  A
C763        C764   1.441       .  A
C763       Br770   1.934       .  S
C764        C765   1.456       .  A
C764       Br769   1.927       .  S
C765        C766   1.451       .  A
C766       Br767   1.917       .  S
C771        C772   1.452       .  A
C771        C776   1.414       .  A
C771       Br778   1.925       .  S
C772        C773   1.428       .  A
C773        C774   1.384       .  A
C773       Br780   1.894       .  S
C774        C775   1.388       .  A
C774       Br779   1.937       .  S
C775        C776   1.399       .  A
C776       Br777   1.937       .  S
C781        C782   1.436       .  A
C781        C786   1.435       .  A
C781       Br788   1.919       .  S
C782        C783   1.444       .  A
C783        C784   1.409       .  A
C783       Br790   1.950       .  S
C784        C785   1.439       .  A
C784       Br789   1.960       .  S
C785        C786   1.426       .  A
C786       Br787   1.948       .  S
C791        C792   1.442       .  A
C791        C796   1.442       .  A
C791       Br798   1.918   1_556  S
C792        C793   1.436       .  A
C793        C794   1.439       .  A
C793       Br800   1.933       .  S
C794        C795   1.445       .  A
C794       Br799   1.904       .  S
C795        C796   1.427       .  A
C796       Br797   1.929       .  S
C801        C806   1.448       .  A
C801       Br808   1.951       .  S
C802        C803   1.429       .  A
C803        C804   1.418       .  A
C803       Br810   1.923       .  S
C804       Br809   1.938       .  S
C805        C806   1.439       .  A
C806       Br807   1.931       .  S
C811        C812   1.414       .  A
C811        C816   1.390       .  A
C811       Br818   1.919       .  S
C812        C813   1.471       .  A
C813        C814   1.440       .  A
C814        C815   1.411       .  A
C814       Br819   1.936       .  S
C815        C816   1.407       .  A
C816       Br817   1.929       .  S
C821        C822   1.454       .  A
C821        C826   1.437       .  A
C821       Br828   1.946       .  S
C822        C823   1.436       .  A
C823        C824   1.431       .  A
C823       Br830   1.935       .  S
C824        C825   1.443       .  A
C824       Br829   1.945       .  S
C825        C826   1.433       .  A
C826       Br827   1.949       .  S
C831        C832   1.457       .  A
C831        C836   1.430       .  A
C831       Br838   1.884       .  S
C832        C833   1.423       .  A
C833        C834   1.413       .  A
C833       Br840   1.914       .  S
C834        C835   1.429       .  A
C834       Br839   1.903       .  S
C835        C836   1.402       .  A
C836       Br837   1.931       .  S
C841        C842   1.398       .  A
C841        C846   1.399       .  A
C841       Br848   1.928       .  S
C842        C843   1.395       .  A
C843        C844   1.372       .  A
C843       Br850   1.922   1_455  S
C844        C845   1.403       .  A
C844       Br849   1.940       .  S
C845        C846   1.418       .  A
C846       Br847   1.918       .  S
C851        C852   1.389       .  A
C851        C856   1.398       .  A
C851       Br858   1.926       .  S
C852        C853   1.393       .  A
C853        C854   1.419       .  A
C853       Br860   1.944   1_655  S
C854        C855   1.442       .  A
C854       Br859   1.920       .  S
C855        C856   1.456       .  A
C856       Br857   1.954       .  S
C861        C862   1.421       .  A
C861        C866   1.393       .  A
C861       Br868   1.928       .  S
C862        C863   1.420       .  A
C863        C864   1.390       .  A
C863       Br870   1.939       .  S
C864        C865   1.398       .  A
C864       Br869   1.934       .  S
C865        C866   1.393       .  A
C866       Br867   1.930       .  S
C871        C872   1.446       .  A
C871       Br878   1.951       .  S
C873        C874   1.395       .  A
C873       Br880   1.937       .  S
C874        C875   1.398       .  A
C874       Br879   1.948       .  S
C875        C876   1.405   1_556  A
C876       Br877   1.934       .  S
