geometry optimzed in LAMMPS
_audit_creation_date              2020-11-30 
_audit_creation_method            'lammps2cif' 
_symmetry_space_group_name_H-M    'P1' 
_symmetry_Int_Tables_number       1 
_symmetry_cell_setting            triclinic 
loop_ 
_symmetry_equiv_pos_as_xyz 
  x,y,z 
_cell_length_a                    53.83137818 
_cell_length_b                    53.82869926958996 
_cell_length_c                    53.67132390410843 
_cell_angle_alpha                 89.91211290025454 
_cell_angle_beta                  89.93878608754905 
_cell_angle_gamma                 90.04608132630308 
loop_ 
_atom_site_label 
_atom_site_type_symbol 
_atom_site_fract_x 
_atom_site_fract_y 
_atom_site_fract_z 
_atom_site_charge 
N1          N  0.13550731  0.70574665  0.93785962    -0.26000
N2          N  0.11315727  0.69825467  0.94529021    -0.33900
C3          C  0.10566070  0.67944973  0.93047330     0.02300
C4          C  0.12418318  0.67451564  0.91329947     0.08300
C5          C  0.14284037  0.69139601  0.91861566    -0.04800
H6          H  0.08841400  0.66935015  0.93275011     0.09000
H7          H  0.16051453  0.69313901  0.90914054     0.10200
Cu8        Cu  0.09423736  0.71075600  0.97731851     0.44200
Cu9        Cu  0.15606970  0.73526708  0.95338430     0.42000
Cu10       Cu  0.13547721  0.74405983  0.01461615     0.43900
N11         N  0.08509742  0.72158932  0.01388711    -0.33400
N12         N  0.10217864  0.73186526  0.02816699    -0.27700
C13         C  0.09244664  0.73754548  0.05044667    -0.03800
C14         C  0.06775808  0.73082260  0.05044115     0.08400
C15         C  0.06355254  0.72087014  0.02683888     0.02200
H16         H  0.10209097  0.74782820  0.06480313     0.09900
H17         H  0.04601622  0.71440043  0.01945011     0.09000
N18         N  0.16096144  0.76709551  0.99830537    -0.34900
N19         N  0.16951579  0.76462637  0.97544409    -0.27000
C20         C  0.18518900  0.78380281  0.97079875    -0.02300
C21         C  0.18615577  0.79904532  0.99190804     0.06300
C22         C  0.17014420  0.78772210  0.00861910     0.04400
H23         H  0.19510286  0.78637902  0.95345992     0.09500
H24         H  0.16468035  0.79420889  0.02684370     0.08400
N25         N  0.88201247  0.83218550  0.96111863    -0.26000
N26         N  0.86445292  0.82025116  0.94861484    -0.33900
C27         C  0.86107844  0.83158899  0.92648892     0.02300
C28         C  0.87758017  0.85119333  0.92474571     0.08300
C29         C  0.89052255  0.85109284  0.94698250    -0.04800
H30         H  0.84760402  0.82593809  0.91265593     0.09000
H31         H  0.90452019  0.86429644  0.95281134     0.10200
Cu32       Cu  0.84599429  0.78853711  0.96133910     0.44200
Cu33       Cu  0.89269166  0.82375370  0.99765080     0.42000
Cu34       Cu  0.85365216  0.77834139  0.02629333     0.43900
N35         N  0.83321068  0.75656469  0.97925772    -0.33400
N36         N  0.83646548  0.75311989  0.00339154    -0.27700
C37         C  0.82796922  0.73058212  0.00986835    -0.03800
C38         C  0.81861026  0.71917002  0.98886189     0.08400
C39         C  0.82198981  0.73627859  0.96974394     0.02200
H40         H  0.82807384  0.72327678  0.02866670     0.09900
H41         H  0.81679118  0.73410425  0.95041176     0.09000
N42         N  0.88150197  0.79626970  0.04509631    -0.34900
N43         N  0.89725716  0.81186538  0.03449101    -0.27000
C44         C  0.91704888  0.81457598  0.04965514    -0.02300
C45         C  0.91338984  0.79991353  0.07066608     0.06300
C46         C  0.89063625  0.78871691  0.06704501     0.04400
H47         H  0.93401041  0.82408035  0.04449082     0.09500
H48         H  0.88289720  0.77364088  0.07793264     0.08400
C49         C  0.99668130  0.76068921  0.12905874    -0.01200
N50         N  0.81035471  0.45179452  0.14901849    -0.26000
N51         N  0.81929684  0.46102063  0.12794373    -0.33900
C52         C  0.83662735  0.44525396  0.11894385     0.02300
C53         C  0.83890846  0.42544886  0.13533698     0.08300
C54         C  0.82215281  0.43036755  0.15424244    -0.04800
H55         H  0.84749118  0.44848073  0.10227345     0.09000
H56         H  0.81871891  0.41910529  0.17060988     0.10200
Cu57       Cu  0.80901481  0.49599620  0.11391902     0.44200
Cu58       Cu  0.78171326  0.46811353  0.16941848     0.42000
Cu59       Cu  0.77345019  0.53324365  0.15664972     0.43900
N60         N  0.79814402  0.53277195  0.10665299    -0.33400
N61         N  0.78687072  0.54687483  0.12334246    -0.27700
C62         C  0.78045475  0.56861769  0.11278635    -0.03800
C63         C  0.78773266  0.56825509  0.08810077     0.08400
C64         C  0.79889357  0.54521169  0.08485224     0.02200
H65         H  0.76890030  0.58249118  0.12164744     0.09900
H66         H  0.80560564  0.53746801  0.06752455     0.09000
N67         N  0.74937219  0.51264659  0.17832667    -0.34900
N68         N  0.75157782  0.48857332  0.18256357    -0.27000
C69         C  0.73075599  0.48043741  0.19398403    -0.02300
C70         C  0.71458765  0.50038132  0.19673218     0.06300
C71         C  0.72727664  0.52045856  0.18677218     0.04400
H72         H  0.72726633  0.46125576  0.19891001     0.09500
H73         H  0.72079457  0.53940799  0.18523417     0.08400
N74         N  0.68928021  0.45536063  0.87806131    -0.26000
N75         N  0.67524927  0.46946290  0.89265447    -0.33900
C76         C  0.65431103  0.45687951  0.89842932     0.02300
C77         C  0.65512240  0.43383684  0.88703861     0.08300
C78         C  0.67758339  0.43346635  0.87442038    -0.04800
H79         H  0.63967045  0.46389287  0.91032405     0.09000
H80         H  0.68489721  0.41834814  0.86336121     0.10200
Cu81       Cu  0.68488344  0.50534676  0.90469558     0.44200
Cu82       Cu  0.72361526  0.46641711  0.86272237     0.42000
Cu83       Cu  0.73011390  0.53224777  0.86525094     0.43900
N84         N  0.70041046  0.54049042  0.91150165    -0.33400
N85         N  0.71661069  0.55035766  0.89585561    -0.27700
C86         C  0.72662244  0.57082580  0.90592967    -0.03800
C87         C  0.71612497  0.57442702  0.92905763     0.08400
C88         C  0.69945253  0.55489725  0.93206528     0.02200
H89         H  0.74190405  0.58116035  0.89785519     0.09900
H90         H  0.68908827  0.55037927  0.94875147     0.09000
N91         N  0.75538694  0.50985121  0.84784000    -0.34900
N92         N  0.75441017  0.48535001  0.84767871    -0.27000
C93         C  0.77560749  0.47677388  0.83725582    -0.02300
C94         C  0.79058693  0.49702020  0.83096337     0.06300
C95         C  0.77685856  0.51755620  0.83786290     0.04400
H96         H  0.77993678  0.45730756  0.83483597     0.09500
H97         H  0.78198943  0.53688291  0.83584976     0.08400
C98         C  0.75207005  0.63783032  0.01053650    -0.01200
C99         C  0.87467103  0.51226640  0.76421172    -0.01200
N100        N  0.05251675  0.66168938  0.72766471    -0.26000
N101        N  0.03321668  0.65057356  0.71737114    -0.33900
C102        C  0.02753153  0.66198703  0.69580666     0.02300
C103        C  0.04383038  0.68155766  0.69222901     0.08300
C104        C  0.05952462  0.68067840  0.71284165    -0.04800
H105        H  0.01097201  0.65817226  0.68505004     0.09000
H106        H  0.07370949  0.69406012  0.71771564     0.10200
Cu107      Cu  0.01165648  0.62503227  0.73621415     0.44200
Cu108      Cu  0.06496236  0.65284990  0.76365951     0.42000
Cu109      Cu  0.02242961  0.61621070  0.80255774     0.43900
N110        N  0.98802034  0.60579641  0.75957533    -0.33400
N111        N  0.99112959  0.60306863  0.78383719    -0.27700
C112        C  0.97175073  0.59008674  0.79304848    -0.03800
C113        C  0.95567705  0.58441959  0.77357995     0.08400
C114        C  0.96684526  0.59466070  0.75269372     0.02200
H115        H  0.96966860  0.58513184  0.81246851     0.09900
H116        H  0.96054681  0.59358155  0.73360959     0.09000
N117        N  0.05694526  0.62915180  0.81463039    -0.34900
N118        N  0.07254153  0.64200540  0.80047898    -0.27000
C119        C  0.09336238  0.64660404  0.81367219    -0.02300
C120        C  0.09069205  0.63628373  0.83717516     0.06300
C121        C  0.06742564  0.62537738  0.83712582     0.04400
H122        H  0.10930031  0.65669633  0.80665327     0.09500
H123        H  0.05884222  0.61517944  0.85225014     0.08400
N124        N  0.04314796  0.35354104  0.77976799    -0.26000
N125        N  0.03112775  0.37020343  0.79322585    -0.33900
C126        C  0.02416249  0.35998579  0.81501132     0.02300
C127        C  0.03188918  0.33554119  0.81542920     0.08300
C128        C  0.04377782  0.33200661  0.79267497    -0.04800
H129        H  0.01207481  0.36889894  0.82841524     0.09000
H130        H  0.05098396  0.31468381  0.78547516     0.10200
Cu131      Cu  0.01829010  0.40329876  0.77871096     0.44200
Cu132      Cu  0.05536349  0.36131635  0.74336791     0.42000
Cu133      Cu  0.02730025  0.41686707  0.71398029     0.43900
N134        N  0.99590986  0.42743788  0.75899010    -0.33400
N135        N  0.99789682  0.43180553  0.73486431    -0.27700
C136        C  0.97798547  0.44526942  0.72755727    -0.03800
C137        C  0.96265523  0.44936234  0.74816219     0.08400
C138        C  0.97508613  0.43795746  0.76769241     0.02200
H139        H  0.97450432  0.45075160  0.70849144     0.09900
H140        H  0.96938154  0.43684057  0.78696276     0.09000
N141        N  0.05752523  0.39706487  0.69917764    -0.34900
N142        N  0.06678786  0.37646287  0.70906782    -0.27000
C143        C  0.08549576  0.36827536  0.69445744    -0.02300
C144        C  0.08845212  0.38462591  0.67472093     0.06300
C145        C  0.07051930  0.40269283  0.67840273     0.04400
H146        H  0.09669195  0.35204362  0.69837136     0.09500
H147        H  0.06709091  0.41873887  0.66673389     0.08400
N148        N  0.54465222  0.39886279  0.83598017    -0.26000
N149        N  0.55549145  0.37915334  0.82583779    -0.33900
C150        C  0.57649658  0.37410841  0.83862755     0.02300
C151        C  0.57934823  0.39158031  0.85735383     0.08300
C152        C  0.55888161  0.40701380  0.85503021    -0.04800
H153        H  0.58914635  0.35912200  0.83423176     0.09000
H154        H  0.55446475  0.42285688  0.86660458     0.10200
Cu155      Cu  0.54266489  0.36031925  0.79380166     0.44200
Cu156      Cu  0.51011701  0.41370258  0.82478135     0.42000
Cu157      Cu  0.48158360  0.37941817  0.77671861     0.43900
N158        N  0.52502272  0.34796527  0.76095676    -0.33400
N159        N  0.50260572  0.35603699  0.75517701    -0.27700
C160        C  0.49543186  0.34627801  0.73342800    -0.03800
C161        C  0.51383682  0.33059164  0.72480688     0.08400
C162        C  0.53256696  0.33226144  0.74275535     0.02200
H163        H  0.47783297  0.35040051  0.72464140     0.09900
H164        H  0.55002166  0.32232885  0.74290315     0.09000
N165        N  0.46330220  0.40754613  0.79470387    -0.34900
N166        N  0.47417830  0.42182491  0.81143095    -0.27000
C167        C  0.45949522  0.44175687  0.81537693    -0.02300
C168        C  0.43833366  0.43961384  0.80052907     0.06300
C169        C  0.44150453  0.41756738  0.78785355     0.04400
H170        H  0.46465090  0.45752196  0.82672944     0.09500
H171        H  0.43027628  0.41084755  0.77256124     0.08400
N172        N  0.57131513  0.63887544  0.70788896    -0.26000
N173        N  0.55765873  0.62298399  0.69481766    -0.33900
C174        C  0.56910561  0.61853855  0.67292314     0.02300
C175        C  0.59082910  0.63218970  0.67205725     0.08300
C176        C  0.59168879  0.64481743  0.69446116    -0.04800
H177        H  0.56203251  0.60630966  0.65859573     0.09000
H178        H  0.60609035  0.65744365  0.70057403     0.10200
Cu179      Cu  0.52345364  0.60765291  0.70570675     0.44200
Cu180      Cu  0.56276801  0.65245039  0.74368768     0.42000
Cu181      Cu  0.50824286  0.62386578  0.76706393     0.43900
N182        N  0.48947280  0.59734266  0.72180696    -0.33400
N183        N  0.48413792  0.60423886  0.74476199    -0.27700
C184        C  0.46140769  0.59606795  0.75092871    -0.03800
C185        C  0.45160684  0.58310121  0.73098531     0.08400
C186        C  0.47011029  0.58411238  0.71278091     0.02200
H187        H  0.45304489  0.59856996  0.76908865     0.09900
H188        H  0.46959377  0.57583635  0.69444522     0.09000
N189        N  0.52944014  0.64776504  0.78805413    -0.34900
N190        N  0.54886082  0.66012579  0.77951952    -0.27000
C191        C  0.55456668  0.67817637  0.79612940    -0.02300
C192        C  0.53789932  0.67675819  0.81600003     0.06300
C193        C  0.52251248  0.65709998  0.81009000     0.04400
H194        H  0.56811348  0.69268099  0.79287287     0.09500
H195        H  0.50562970  0.65185177  0.81972255     0.08400
C196        C  0.37200830  0.51531067  0.75671220    -0.01200
N197        N  0.76134789  0.54440587  0.67088567    -0.26000
N198        N  0.77619979  0.53420607  0.65420313    -0.33900
C199        C  0.79718991  0.52665106  0.66521638     0.02300
C200        C  0.79585078  0.53214336  0.69030552     0.08300
C201        C  0.77280545  0.54362632  0.69326353    -0.04800
H202        H  0.81227703  0.51765258  0.65546443     0.09000
H203        H  0.76472405  0.55038866  0.71040764     0.10200
Cu204      Cu  0.76677869  0.52722251  0.61785855     0.44200
Cu205      Cu  0.72634610  0.55830182  0.66081202     0.42000
Cu206      Cu  0.70633308  0.53909398  0.59711967     0.43900
N207        N  0.75146899  0.50807143  0.58865666    -0.33400
N208        N  0.72821567  0.51084340  0.58152271    -0.27700
C209        C  0.72250691  0.49216627  0.56571494    -0.03800
C210        C  0.74328861  0.47684619  0.56304086     0.08400
C211        C  0.76127955  0.48799166  0.57769814     0.02200
H212        H  0.70423864  0.48924463  0.55788946     0.09900
H213        H  0.77999619  0.48160645  0.58108219     0.09000
N214        N  0.68979179  0.56746553  0.61823204    -0.34900
N215        N  0.69579045  0.57307798  0.64153024    -0.27000
C216        C  0.68032999  0.59099751  0.64975780    -0.02300
C217        C  0.66430146  0.59742967  0.63065163     0.06300
C218        C  0.67091219  0.58224686  0.61094186     0.04400
H219        H  0.68111814  0.59922520  0.66812761     0.09500
H220        H  0.66220019  0.58154675  0.59279541     0.08400
N221        N  0.78625995  0.48874962  0.39235013    -0.26000
N222        N  0.79830940  0.50085810  0.40994661    -0.33900
C223        C  0.80093675  0.48566428  0.42975823     0.02300
C224        C  0.78994847  0.46284657  0.42429234     0.08300
C225        C  0.78125390  0.46561456  0.40014424    -0.04800
H226        H  0.80869622  0.49146751  0.44737401     0.09000
H227        H  0.77066012  0.45245538  0.38930797     0.10200
Cu228      Cu  0.80841513  0.53816264  0.40578630     0.44200
Cu229      Cu  0.77018916  0.50582081  0.36213451     0.42000
Cu230      Cu  0.77574089  0.57154463  0.35555859     0.43900
N231        N  0.81880220  0.57324481  0.39244243    -0.33400
N232        N  0.80771493  0.58480868  0.37367304    -0.27700
C233        C  0.82074604  0.60552124  0.36810948    -0.03800
C234        C  0.84068823  0.60729069  0.38430380     0.08400
C235        C  0.83883719  0.58656194  0.39948228     0.02200
H236        H  0.81617124  0.61826570  0.35319436     0.09900
H237        H  0.85170773  0.58102306  0.41393665     0.09000
N238        N  0.74603413  0.55126444  0.34041959    -0.34900
N239        N  0.74480709  0.52686802  0.34275330    -0.27000
C240        C  0.72373281  0.51852318  0.33238907    -0.02300
C241        C  0.71078147  0.53852793  0.32281869     0.06300
C242        C  0.72560891  0.55908469  0.32806564     0.04400
H243        H  0.71835123  0.49917032  0.33176375     0.09500
H244        H  0.72167020  0.57827249  0.32358526     0.08400
C245        C  0.76198606  0.38872003  0.50024195    -0.01200
N246        N  0.71855767  0.01633680  0.08910024    -0.26000
N247        N  0.74281666  0.01835751  0.09208829    -0.33900
C248        C  0.75096338  0.03914280  0.08101903     0.02300
C249        C  0.73100316  0.05144524  0.07047586     0.08300
C250        C  0.71063234  0.03620055  0.07578498    -0.04800
H251        H  0.77025591  0.04471764  0.08068448     0.09000
H252        H  0.69146024  0.03951948  0.07078974     0.10200
Cu253      Cu  0.76427494  0.99488633  0.11334951     0.44200
Cu254      Cu  0.69897896  0.98608668  0.10466916     0.42000
Cu255      Cu  0.73560172  0.95004355  0.15184246     0.43900
N256        N  0.78271863  0.97844371  0.14258366    -0.33400
N257        N  0.77218941  0.96239546  0.15794924    -0.27700
C258        C  0.78740979  0.95912303  0.17771459    -0.03800
C259        C  0.80840103  0.97390495  0.17443410     0.08400
C260        C  0.80458492  0.98585838  0.15198211     0.02200
H261        H  0.78254466  0.94869975  0.19426658     0.09900
H262        H  0.81572241  0.00076210  0.14427949     0.09000
N263        N  0.69931579  0.94123844  0.14010704    -0.34900
N264        N  0.68646919  0.95368991  0.12307280    -0.27000
C265        C  0.66472094  0.94176711  0.11917256    -0.02300
C266        C  0.66359422  0.92113844  0.13462109     0.06300
C267        C  0.68587419  0.92135537  0.14750014     0.04400
H268        H  0.65090005  0.94743481  0.10569063     0.09500
H269        H  0.69223811  0.90754440  0.16070066     0.08400
N270        N  0.72845612  0.95190717  0.86330738    -0.26000
N271        N  0.71699627  0.96742313  0.87848277    -0.33900
C272        C  0.69455918  0.97313811  0.86912250     0.02300
C273        C  0.69156955  0.96089201  0.84672379     0.08300
C274        C  0.71354062  0.94761581  0.84362088    -0.04800
H275        H  0.68300423  0.98805878  0.87606370     0.09000
H276        H  0.71937891  0.93803634  0.82690369     0.10200
Cu277      Cu  0.73569926  0.98765446  0.90501431     0.44200
Cu278      Cu  0.76602409  0.94258046  0.86791630     0.42000
Cu279      Cu  0.80271466  0.98521119  0.90736744     0.43900
N280        N  0.75730820  0.01503533  0.92076905    -0.33400
N281        N  0.78183567  0.01488165  0.92177315    -0.27700
C282        C  0.78945170  0.03637413  0.93232440    -0.03800
C283        C  0.76861998  0.05077203  0.93771852     0.08400
C284        C  0.74871690  0.03642467  0.93016923     0.02200
H285        H  0.80867955  0.04127026  0.93551908     0.09900
H286        H  0.72921063  0.04098619  0.93170715     0.09000
N287        N  0.81700719  0.95308934  0.89036313    -0.34900
N288        N  0.80376382  0.93767149  0.87642966    -0.27000
C289        C  0.81813129  0.91814006  0.87008679    -0.02300
C290        C  0.84161214  0.92155172  0.88003933     0.06300
C291        C  0.84009726  0.94372548  0.89301350     0.04400
H292        H  0.81163220  0.90206214  0.85990722     0.09500
H293        H  0.85437008  0.95178837  0.90466650     0.08400
C294        C  0.74834179  0.13574351  0.00265886    -0.01200
C295        C  0.50562081  0.75668472  0.88391204    -0.01200
N296        N  0.60466694  0.77456467  0.98771093    -0.26000
N297        N  0.59724132  0.79704938  0.99417753    -0.33900
C298        C  0.58147753  0.80546327  0.97647070     0.02300
C299        C  0.57957825  0.78762424  0.95776912     0.08300
C300        C  0.59448712  0.76834274  0.96573355    -0.04800
H301        H  0.57117860  0.82265994  0.97768383     0.09000
H302        H  0.59610517  0.75019631  0.95722413     0.10200
Cu303      Cu  0.60817388  0.81334345  0.02822548     0.44200
Cu304      Cu  0.62469282  0.75134453  0.01075575     0.42000
Cu305      Cu  0.64561175  0.77299632  0.07008580     0.43900
N306        N  0.62143192  0.82386875  0.06371432    -0.33400
N307        N  0.63431533  0.80917345  0.07878160    -0.27700
C308        C  0.63876259  0.82130738  0.10030136    -0.03800
C309        C  0.62844156  0.84477712  0.09875939     0.08400
C310        C  0.61767375  0.84579341  0.07532918     0.02200
H311        H  0.64874387  0.81355619  0.11598151     0.09900
H312        H  0.60742788  0.86121420  0.06747722     0.09000
N313        N  0.65440531  0.73783871  0.05606352    -0.34900
N314        N  0.64550136  0.72974436  0.03463854    -0.27000
C315        C  0.65595012  0.70780458  0.02906281    -0.02300
C316        C  0.67260760  0.70170562  0.04762389     0.06300
C317        C  0.67125027  0.72129443  0.06443871     0.04400
H318        H  0.65390932  0.69853011  0.01130021     0.09500
H319        H  0.68324409  0.72435363  0.08029944     0.08400
N320        N  0.36303823  0.69756590  0.06945768    -0.26000
N321        N  0.38150979  0.68557802  0.05827225    -0.33900
C322        C  0.38709887  0.66516254  0.07179076     0.02300
C323        C  0.37138478  0.66406371  0.09218766     0.08300
C324        C  0.35644657  0.68485693  0.09012071    -0.04800
H325        H  0.40175276  0.65218129  0.06723217     0.09000
H326        H  0.34221685  0.69070830  0.10310195     0.10200
Cu327      Cu  0.39959838  0.69688665  0.02529426     0.44200
Cu328      Cu  0.34777519  0.73179065  0.05818504     0.42000
Cu329      Cu  0.37954476  0.75645571  0.00632004     0.43900
N330        N  0.41333373  0.71421754  0.99290636    -0.33400
N331        N  0.40495939  0.73630587  0.98633551    -0.27700
C332        C  0.41591327  0.74360264  0.96515014    -0.03800
C333        C  0.43227894  0.72537704  0.95760281     0.08400
C334        C  0.43039459  0.70696021  0.97585221     0.02200
H335        H  0.41273765  0.76139355  0.95632208     0.09900
H336        H  0.44060435  0.68967457  0.97666310     0.09000
N337        N  0.35195771  0.77565609  0.02424659    -0.34900
N338        N  0.33905377  0.76683290  0.04320976    -0.27000
C339        C  0.32095248  0.78336429  0.04879524    -0.02300
C340        C  0.32271508  0.80334857  0.03229273     0.06300
C341        C  0.34278294  0.79770086  0.01727596     0.04400
H342        H  0.30691807  0.78054219  0.06295520     0.09500
H343        H  0.34988071  0.80847512  0.00179420     0.08400
N344        N  0.47501603  0.16861526  0.75632537    -0.26000
N345        N  0.49727246  0.15999379  0.75067070    -0.33900
C346        C  0.50559488  0.17100363  0.72989572     0.02300
C347        C  0.48809104  0.18795270  0.72179195     0.08300
C348        C  0.46869425  0.18580918  0.73898740    -0.04800
H349        H  0.52341537  0.16699806  0.72147845     0.09000
H350        H  0.45171840  0.19653657  0.73935125     0.10200
Cu351      Cu  0.51683825  0.13469880  0.77157840     0.44200
Cu352      Cu  0.45632359  0.15578389  0.78845139     0.42000
Cu353      Cu  0.48946476  0.10540793  0.82399246     0.43900
N354        N  0.53491491  0.10729138  0.79109188    -0.33400
N355        N  0.52461483  0.09509866  0.80981254    -0.27700
C356        C  0.53941450  0.07565507  0.81554909    -0.03800
C357        C  0.56011694  0.07604053  0.79987803     0.08400
C358        C  0.55646730  0.09642759  0.78470867     0.02200
H359        H  0.53478033  0.06143848  0.82904561     0.09900
H360        H  0.56742137  0.10153773  0.76856994     0.09000
N361        N  0.45497707  0.12123751  0.83423694    -0.34900
N362        N  0.44349740  0.13921309  0.82177458    -0.27000
C363        C  0.42253864  0.14537727  0.83414471    -0.02300
C364        C  0.42048737  0.13063841  0.85521964     0.06300
C365        C  0.44137700  0.11558233  0.85468478     0.04400
H366        H  0.40974270  0.15973993  0.82829961     0.09500
H367        H  0.44655827  0.10180850  0.86843779     0.08400
C368        C  0.62774869  0.99721724  0.76475171    -0.01200
N369        N  0.44388934  0.89146941  0.69432629    -0.26000
N370        N  0.43095999  0.87455711  0.70692784    -0.33900
C371        C  0.40938809  0.87039198  0.69471420     0.02300
C372        C  0.40859514  0.88539654  0.67368554     0.08300
C373        C  0.43076923  0.89839422  0.67405714    -0.04800
H374        H  0.39520662  0.85746530  0.70078125     0.09000
H375        H  0.43699479  0.91190601  0.66046212     0.10200
Cu376      Cu  0.44212478  0.85799477  0.74105207     0.44200
Cu377      Cu  0.47891257  0.90564089  0.70442203     0.42000
Cu378      Cu  0.49089260  0.89174266  0.76761346     0.43900
N379        N  0.45686495  0.84916696  0.77659683    -0.33400
N380        N  0.47366465  0.86384759  0.78676854    -0.27700
C381        C  0.48147090  0.85423894  0.80845418    -0.03800
C382        C  0.46917711  0.83218092  0.81255313     0.08400
C383        C  0.45387598  0.82925285  0.79175629     0.02200
H384        H  0.49696287  0.86140757  0.81909266     0.09900
H385        H  0.44272733  0.81313866  0.78728605     0.09000
N386        N  0.51538991  0.91100912  0.74585982    -0.34900
N387        N  0.51184974  0.91670905  0.72222016    -0.27000
C388        C  0.53204710  0.92932128  0.71402704    -0.02300
C389        C  0.54908954  0.93092577  0.73355477     0.06300
C390        C  0.53762483  0.91918174  0.75329754     0.04400
H391        H  0.53415801  0.93671005  0.69539217     0.09500
H392        H  0.54459263  0.91730879  0.77210143     0.08400
N393        N  0.01094588  0.10064053  0.72846634    -0.26000
N394        N  0.01396744  0.10875726  0.75142547    -0.33900
C395        C  0.03521395  0.10007961  0.76092528     0.02300
C396        C  0.04641252  0.08468701  0.74367824     0.08300
C397        C  0.03055883  0.08569270  0.72297405    -0.04800
H398        H  0.04134478  0.10383515  0.77972255     0.09000
H399        H  0.03242320  0.07519911  0.70591037     0.10200
Cu400      Cu  0.98783706  0.12806128  0.77108764     0.44200
Cu401      Cu  0.97807657  0.11117861  0.70904665     0.42000
Cu402      Cu  0.93833533  0.15912066  0.74421036     0.43900
N403        N  0.96657577  0.15205983  0.79131516    -0.33400
N404        N  0.94949640  0.16642401  0.78123357    -0.27700
C405        C  0.94436225  0.18492062  0.79756622    -0.03800
C406        C  0.95891618  0.18153281  0.81886671     0.08400
C407        C  0.97238282  0.16028591  0.81407008     0.02200
H408        H  0.93287853  0.20085926  0.79335144     0.09900
H409        H  0.98771776  0.15317564  0.82498836     0.09000
N410        N  0.93016570  0.14343731  0.70897958    -0.34900
N411        N  0.94353257  0.12647767  0.69691021    -0.27000
C412        C  0.93146970  0.12055708  0.67559724    -0.02300
C413        C  0.90973705  0.13436299  0.67402587     0.06300
C414        C  0.90961630  0.14860334  0.69548231     0.04400
H415        H  0.93807995  0.10717013  0.66211167     0.09500
H416        H  0.89538231  0.16165564  0.70106009     0.08400
N417        N  0.04026800  0.89535904  0.79398582    -0.26000
N418        N  0.03099968  0.90752549  0.81318351    -0.33900
C419        C  0.04652752  0.92637270  0.81873355     0.02300
C420        C  0.06661856  0.92566463  0.80243207     0.08300
C421        C  0.06184380  0.90574922  0.78703156    -0.04800
H422        H  0.04214277  0.94117952  0.83161638     0.09000
H423        H  0.07140390  0.90145006  0.76981501     0.10200
Cu424      Cu  0.99509783  0.90027034  0.82643535     0.44200
Cu425      Cu  0.01977347  0.87125499  0.77289144     0.42000
Cu426      Cu  0.95634605  0.85847455  0.78605057     0.43900
N427        N  0.95842700  0.88950118  0.83418537    -0.33400
N428        N  0.94464261  0.87489836  0.81983600    -0.27700
C429        C  0.92207456  0.87228688  0.83050791    -0.03800
C430        C  0.92154652  0.88579833  0.85243697     0.08400
C431        C  0.94493832  0.89631001  0.85427151     0.02200
H432        H  0.90714999  0.86113582  0.82295932     0.09900
H433        H  0.95170556  0.90804080  0.86915849     0.09000
N434        N  0.97405041  0.84617774  0.75315827    -0.34900
N435        N  0.99747174  0.85203685  0.74877937    -0.27000
C436        C  0.00454124  0.84302229  0.72663379    -0.02300
C437        C  0.98483429  0.83043401  0.71619456     0.06300
C438        C  0.96570028  0.83256719  0.73367318     0.04400
H439        H  0.02310386  0.84477246  0.71909240     0.09500
H440        H  0.94719698  0.82484326  0.73229823     0.08400
C441        C  0.12522354  0.01225491  0.76964924    -0.01200
N442        N  0.12538884  0.82636137  0.44884201    -0.26000
N443        N  0.13717317  0.81124628  0.43321911    -0.33900
C444        C  0.14038683  0.82328006  0.41125932     0.02300
C445        C  0.13051928  0.84704218  0.41315924     0.08300
C446        C  0.12133830  0.84827077  0.43723945    -0.04800
H447        H  0.14926125  0.81530480  0.39503654     0.09000
H448        H  0.11176657  0.86386405  0.44556514     0.10200
Cu449      Cu  0.14840544  0.77430823  0.44167128     0.44200
Cu450      Cu  0.11250889  0.81718748  0.48504021     0.42000
Cu451      Cu  0.11478693  0.75311188  0.49374432     0.43900
N452        N  0.15290333  0.73798970  0.45643569    -0.33400
N453        N  0.13802403  0.73031191  0.47442630    -0.27700
C454        C  0.14550712  0.70819105  0.48297195    -0.03800
C455        C  0.16660780  0.70123197  0.47025894     0.08400
C456        C  0.17078169  0.72053768  0.45330150     0.02200
H457        H  0.13790287  0.69930881  0.49940122     0.09900
H458        H  0.18693999  0.72284902  0.44152691     0.09000
N459        N  0.10057118  0.77607161  0.52043641    -0.34900
N460        N  0.09869186  0.80036974  0.51793511    -0.27000
C461        C  0.08587587  0.80917568  0.53783037    -0.02300
C462        C  0.08023230  0.78928651  0.55364375     0.06300
C463        C  0.08985720  0.76877220  0.54172771     0.04400
H464        H  0.07962013  0.82816066  0.53978852     0.09500
H465        H  0.08732691  0.74954662  0.54712288     0.08400
N466        N  0.87079773  0.71510041  0.44268775    -0.26000
N467        N  0.88692533  0.70261522  0.45661732    -0.33900
C468        C  0.89290081  0.68137540  0.44460212     0.02300
C469        C  0.88002074  0.68050284  0.42224835     0.08300
C470        C  0.86622529  0.70211874  0.42172752    -0.04800
H471        H  0.90556996  0.66747121  0.45170308     0.09000
H472        H  0.85365192  0.70799407  0.40714430     0.10200
Cu473      Cu  0.90032124  0.71434751  0.49185082     0.44200
Cu474      Cu  0.85470536  0.74936392  0.45158308     0.42000
Cu475      Cu  0.87644320  0.77369840  0.50839586     0.43900
N476        N  0.90884337  0.73177311  0.52617263    -0.33400
N477        N  0.89870005  0.75336218  0.53184690    -0.27700
C478        C  0.90744375  0.76132992  0.55377553    -0.03800
C479        C  0.92462060  0.74440441  0.56262417     0.08400
C480        C  0.92489391  0.72564282  0.54464730     0.02200
H481        H  0.90259701  0.77903551  0.56194737     0.09900
H482        H  0.93707944  0.70968192  0.54423318     0.09000
N483        N  0.85241627  0.79298199  0.48587720    -0.34900
N484        N  0.84269308  0.78362747  0.46537163    -0.27000
C485        C  0.82406052  0.79863438  0.45784516    -0.02300
C486        C  0.82257885  0.81857485  0.47424852     0.06300
C487        C  0.84087387  0.81426278  0.49167090     0.04400
H488        H  0.81157249  0.79457535  0.44260689     0.09500
H489        H  0.84380763  0.82445302  0.50879049     0.08400
C490        C  0.00654457  0.76470650  0.63181788    -0.01200
C491        C  0.74500077  0.88511561  0.51125461    -0.01200
N492        N  0.81379569  0.06249892  0.62497154    -0.26000
N493        N  0.80295143  0.07330763  0.64442997    -0.33900
C494        C  0.81624715  0.09360527  0.65078724     0.02300
C495        C  0.83614971  0.09595523  0.63462686     0.08300
C496        C  0.83389819  0.07607399  0.61843006    -0.04800
H497        H  0.81174773  0.10579868  0.66615443     0.09000
H498        H  0.84648105  0.07133913  0.60343553     0.10200
Cu499      Cu  0.77072252  0.06095164  0.66316034     0.44200
Cu500      Cu  0.80373516  0.02807757  0.60871538     0.42000
Cu501      Cu  0.76444434  0.99817880  0.64850924     0.43900
N502        N  0.74042559  0.03993168  0.67624498    -0.33400
N503        N  0.73884745  0.01661958  0.66906046    -0.27700
C504        C  0.71816041  0.00626881  0.67788086    -0.03800
C505        C  0.70600694  0.02328746  0.69268884     0.08400
C506        C  0.72056212  0.04480660  0.69102545     0.02200
H507        H  0.71275548  0.98738644  0.67378605     0.09900
H508        H  0.71740116  0.06226319  0.70044820     0.09000
N509        N  0.77906079  0.97970642  0.61916139    -0.34900
N510        N  0.79264573  0.99097613  0.60212958    -0.27000
C511        C  0.79448420  0.97564296  0.58225052    -0.02300
C512        C  0.78143169  0.95383800  0.58754406     0.06300
C513        C  0.77182534  0.95734027  0.61103052     0.04400
H514        H  0.80283009  0.98069943  0.56462049     0.09500
H515        H  0.75842187  0.94563193  0.62044626     0.08400
N516        N  0.72313249  0.98278677  0.40315705    -0.24400
N517        N  0.70594136  0.99325957  0.41717187    -0.33900
C518        C  0.70033051  0.97743892  0.43590011     0.02300
C519        C  0.71432471  0.95586463  0.43300143     0.08300
C520        C  0.72860864  0.96015009  0.41209522    -0.04800
H521        H  0.68864652  0.98207515  0.45163102     0.09000
H522        H  0.74408516  0.94899928  0.40574757     0.10200
Cu523      Cu  0.69444277  0.03002072  0.41038933     0.44200
Cu524      Cu  0.74358910  0.00230348  0.37758704     0.42000
Cu525      Cu  0.73205540  0.06606882  0.36356061     0.43900
N526        N  0.68532126  0.06549787  0.39650087    -0.33400
N527        N  0.69830596  0.07815674  0.37967297    -0.27700
C528        C  0.68600500  0.09940309  0.37434919    -0.03800
C529        C  0.66443929  0.10024846  0.38847384     0.08400
C530        C  0.66465364  0.07848289  0.40222919     0.02200
H531        H  0.69215911  0.11311188  0.36092354     0.09900
H532        H  0.65048954  0.07226572  0.41513717     0.09000
N533        N  0.76394508  0.04704935  0.35086481    -0.34900
N534        N  0.76761815  0.02355332  0.35695893    -0.27000
C535        C  0.78822963  0.01511219  0.34586213    -0.02300
C536        C  0.79842141  0.03399342  0.33183720     0.06300
C537        C  0.78239878  0.05406078  0.33516769     0.04400
H538        H  0.79436326  0.99597450  0.34647686     0.09500
H539        H  0.78321772  0.07176792  0.32564684     0.08400
N540        N  0.62888621  0.70458161  0.57351559    -0.26000
N541        N  0.61162754  0.69208899  0.56107701    -0.33900
C542        C  0.60663894  0.67079271  0.57343484     0.02300
C543        C  0.62150148  0.66972661  0.59443014     0.08300
C544        C  0.63531679  0.69139181  0.59388883    -0.04800
H545        H  0.59344139  0.65690062  0.56734755     0.09000
H546        H  0.64912588  0.69714748  0.60733864     0.10200
Cu547      Cu  0.59620898  0.70317331  0.52686397     0.44200
Cu548      Cu  0.64391552  0.73905566  0.56289301     0.42000
Cu549      Cu  0.62582008  0.75678376  0.50189480     0.43900
N550        N  0.58770206  0.71760477  0.49152287    -0.33400
N551        N  0.60013822  0.73660424  0.48214528    -0.27700
C552        C  0.59023536  0.74317604  0.46018139    -0.03800
C553        C  0.57047277  0.72766879  0.45519072     0.08400
C554        C  0.56911654  0.71183962  0.47566493     0.02200
H555        H  0.59535830  0.75971911  0.44989710     0.09900
H556        H  0.55460390  0.69846954  0.47957689     0.09000
N557        N  0.64776453  0.77888170  0.52400642    -0.34900
N558        N  0.65523387  0.77269212  0.54658601    -0.27000
C559        C  0.67036273  0.79082721  0.55514492    -0.02300
C560        C  0.67207700  0.80938418  0.53704882     0.06300
C561        C  0.65745963  0.80095003  0.51766337     0.04400
H562        H  0.67961495  0.79037340  0.57301468     0.09500
H563        H  0.65495933  0.80963908  0.49965877     0.08400
N564        N  0.33412398  0.75368446  0.54361152    -0.26000
N565        N  0.33885753  0.75116971  0.51962585    -0.33900
C566        C  0.32914501  0.72984318  0.51126509     0.02300
C567        C  0.31745363  0.71791792  0.53077312     0.08300
C568        C  0.32062913  0.73375057  0.55109294    -0.04800
H569        H  0.32926776  0.72413115  0.49194005     0.09000
H570        H  0.31259798  0.73158080  0.56944372     0.10200
Cu571      Cu  0.35742552  0.77694613  0.49861256     0.44200
Cu572      Cu  0.34648893  0.78579833  0.56244515     0.42000
Cu573      Cu  0.39456463  0.82278841  0.52634246     0.43900
N574        N  0.38527172  0.79429975  0.47945212    -0.33400
N575        N  0.40115734  0.80986226  0.48977817    -0.27700
C576        C  0.42078709  0.81239804  0.47415628    -0.03800
C577        C  0.41657009  0.79782027  0.45308381     0.08400
C578        C  0.39390183  0.78673391  0.45733733     0.02200
H579        H  0.43773016  0.82220285  0.47871569     0.09900
H580        H  0.38568171  0.77191421  0.44650403     0.09000
N581        N  0.37976217  0.83247486  0.56154617    -0.34900
N582        N  0.36262946  0.81969780  0.57401176    -0.27000
C583        C  0.35718507  0.83201357  0.59524103    -0.02300
C584        C  0.37141849  0.85343195  0.59631670     0.06300
C585        C  0.38554806  0.85305195  0.57473012     0.04400
H586        H  0.34385479  0.82576282  0.60899916     0.09500
H587        H  0.39899727  0.86685702  0.56893443     0.08400
C588        C  0.49174582  0.75732734  0.38473962    -0.01200
N589        N  0.34884287  0.23701087  0.49051650    -0.26000
N590        N  0.33761179  0.24620283  0.47074080    -0.33900
C591        C  0.31908015  0.23044648  0.46432656     0.02300
C592        C  0.31883071  0.21045135  0.48108859     0.08300
C593        C  0.33801862  0.21567959  0.49737218    -0.04800
H594        H  0.30660694  0.23356018  0.44887302     0.09000
H595        H  0.34318673  0.20546204  0.51390833     0.10200
Cu596      Cu  0.34897515  0.28081044  0.45610235     0.44200
Cu597      Cu  0.37752690  0.25391590  0.50882615     0.42000
Cu598      Cu  0.40474366  0.30973186  0.48905528     0.43900
N599        N  0.36604697  0.31494766  0.44676220    -0.33400
N600        N  0.38627243  0.32435238  0.45739238    -0.27700
C601        C  0.39266314  0.34535994  0.44514693    -0.03800
C602        C  0.37550709  0.34978694  0.42641884     0.08400
C603        C  0.35892194  0.33017588  0.42804819     0.02200
H604        H  0.40860854  0.35674285  0.44966877     0.09900
H605        H  0.34323452  0.32676902  0.41593064     0.09000
N606        N  0.41670828  0.29110900  0.52168764    -0.34900
N607        N  0.40587004  0.27011719  0.52829789    -0.27000
C608        C  0.41620184  0.26131973  0.54922790    -0.02300
C609        C  0.43476258  0.27738717  0.55664247     0.06300
C610        C  0.43452028  0.29630279  0.53874567     0.04400
H611        H  0.41043278  0.24438115  0.55844342     0.09500
H612        H  0.44670077  0.31227566  0.53793885     0.08400
C613        C  0.50395336  0.26074328  0.64065948    -0.01200
N614        N  0.63684560  0.20892268  0.44563148    -0.26000
N615        N  0.61783938  0.19883330  0.45781054    -0.33900
C616        C  0.61057294  0.17818006  0.44551117     0.02300
C617        C  0.62587671  0.17484691  0.42499824     0.08300
C618        C  0.64230728  0.19461057  0.42574235    -0.04800
H619        H  0.59567560  0.16603635  0.45148388     0.09000
H620        H  0.65718092  0.19836720  0.41268380     0.10200
Cu621      Cu  0.60313436  0.21188616  0.49194644     0.44200
Cu622      Cu  0.65556471  0.24171857  0.45579046     0.42000
Cu623      Cu  0.63978790  0.25937663  0.51744868     0.43900
N624        N  0.59467840  0.22870718  0.52648580    -0.33400
N625        N  0.60892657  0.24657269  0.53536408    -0.27700
C626        C  0.59924769  0.25554229  0.55656185    -0.03800
C627        C  0.57781067  0.24254879  0.56179947     0.08400
C628        C  0.57544549  0.22549869  0.54239995     0.02200
H629        H  0.60717266  0.27062314  0.56723328     0.09900
H630        H  0.56045353  0.21239885  0.53968385     0.09000
N631        N  0.66531890  0.27807727  0.49660379    -0.34900
N632        N  0.67098967  0.27304706  0.47324962    -0.27000
C633        C  0.68664343  0.29091554  0.46493595    -0.02300
C634        C  0.69061201  0.30793588  0.48417284     0.06300
C635        C  0.67695109  0.29873316  0.50390546     0.04400
H636        H  0.69411199  0.29169043  0.44624112     0.09500
H637        H  0.67542533  0.30632148  0.52246951     0.08400
N638        N  0.22233216  0.99150760  0.66368083    -0.26000
N639        N  0.23232530  0.97193851  0.67461601    -0.33900
C640        C  0.21671497  0.96422584  0.69277275     0.02300
C641        C  0.19577572  0.97945608  0.69266112     0.08300
C642        C  0.20015994  0.99644901  0.67394873    -0.04800
H643        H  0.22091291  0.94967779  0.70603066     0.09000
H644        H  0.18921310  0.01280490  0.66982675     0.10200
Cu645      Cu  0.26772510  0.95890518  0.66433867     0.44200
Cu646      Cu  0.24093441  0.01381155  0.63894414     0.42000
Cu647      Cu  0.29909436  0.99451455  0.61348308     0.43900
N648        N  0.30167277  0.94876426  0.64769185    -0.33400
N649        N  0.31247012  0.96080993  0.62898024    -0.27700
C650        C  0.33298873  0.94804993  0.62204564    -0.03800
C651        C  0.33544190  0.92728232  0.63723351     0.08400
C652        C  0.31528900  0.92843689  0.65324976     0.02200
H653        H  0.34532150  0.95353629  0.60708034     0.09900
H654        H  0.31050547  0.91506485  0.66755043     0.09000
N655        N  0.28111993  0.02795118  0.60302307    -0.34900
N656        N  0.26018325  0.03503458  0.61374238    -0.27000
C657        C  0.25198952  0.05609764  0.60315895    -0.02300
C658        C  0.26839665  0.06292899  0.58466849     0.06300
C659        C  0.28654843  0.04448395  0.58480004     0.04400
H660        H  0.23427804  0.06468429  0.60725421     0.09500
H661        H  0.30172194  0.04253058  0.57172295     0.08400
C662        C  0.24255731  0.13581031  0.50611159    -0.01200
N663        N  0.12688025  0.30918617  0.57931395    -0.26000
N664        N  0.11188405  0.32329791  0.56571290    -0.33900
C665        C  0.10880897  0.34529175  0.57741016     0.02300
C666        C  0.12244274  0.34513402  0.59930611     0.08300
C667        C  0.13352968  0.32191304  0.59994312    -0.04800
H668        H  0.09724891  0.36026303  0.57059380     0.09000
H669        H  0.14549289  0.31472564  0.61445143     0.10200
Cu670      Cu  0.09544447  0.31228909  0.53177976     0.44200
Cu671      Cu  0.13803857  0.27293029  0.56966955     0.42000
Cu672      Cu  0.10810265  0.24870145  0.51603875     0.43900
N673        N  0.08213392  0.29524717  0.49904220    -0.33400
N674        N  0.08761709  0.27192052  0.49376080    -0.27700
C675        C  0.07752717  0.26562960  0.47185245    -0.03800
C676        C  0.06470611  0.28577945  0.46257875     0.08400
C677        C  0.06776605  0.30430450  0.48044752     0.02200
H678        H  0.07875273  0.24731827  0.46366539     0.09900
H679        H  0.06010047  0.32286588  0.47997916     0.09000
N680        N  0.13368783  0.22848620  0.53576239    -0.34900
N681        N  0.14587245  0.23750284  0.55507632    -0.27000
C682        C  0.16450366  0.22170902  0.56065699    -0.02300
C683        C  0.16385853  0.20183689  0.54401574     0.06300
C684        C  0.14391466  0.20686703  0.52866729     0.04400
H685        H  0.17849707  0.22528199  0.57464731     0.09500
H686        H  0.13890114  0.19697079  0.51186418     0.08400
C687        C  0.10737786  0.38374523  0.65473648     0.81500
N688        N  0.10720313  0.36499424  0.63772522    -0.76800
C689        C  0.12370743  0.36492548  0.61846024     0.83900
N690        N  0.14088682  0.38350988  0.61663927    -0.76800
C691        C  0.14168832  0.40195330  0.63404223     0.84000
N692        N  0.12468533  0.40211013  0.65283701    -0.78500
C693        C  0.37192108  0.87216756  0.61651679     0.81500
N694        N  0.35498127  0.89098865  0.61698730    -0.76800
C695        C  0.35473427  0.90758193  0.63616583     0.83900
N696        N  0.37169454  0.90527126  0.65489634    -0.76800
C697        C  0.38894483  0.88672986  0.65439908     0.84000
N698        N  0.38890691  0.87021849  0.63520213    -0.78500
N699        N  0.29863564  0.53461137  0.41269563    -0.26000
N700        N  0.28172694  0.54544216  0.39857326    -0.33900
C701        C  0.27509436  0.56723583  0.40882351     0.02300
C702        C  0.28821964  0.57040458  0.43073301     0.08300
C703        C  0.30309867  0.54931196  0.43250419    -0.04800
H704        H  0.25987060  0.57860493  0.40224559     0.09000
H705        H  0.31506508  0.54423465  0.44785552     0.10200
Cu706      Cu  0.26350254  0.52715895  0.37022998     0.44200
Cu707      Cu  0.31135860  0.49845590  0.40576617     0.42000
Cu708      Cu  0.27322544  0.46110141  0.36270187     0.43900
N709        N  0.23964008  0.50435513  0.35072847    -0.33400
N710        N  0.24226574  0.48007689  0.34824424    -0.27700
C711        C  0.22224302  0.47116779  0.33595184    -0.03800
C712        C  0.20621474  0.49084005  0.33076530     0.08400
C713        C  0.21816085  0.51150327  0.34033016     0.02200
H714        H  0.21940901  0.45178263  0.33150683     0.09900
H715        H  0.21185776  0.53056368  0.33969153     0.09000
N716        N  0.30630058  0.44852617  0.37938307    -0.34900
N717        N  0.31998214  0.46207273  0.39477339    -0.27000
C718        C  0.34025729  0.44890186  0.40136357    -0.02300
C719        C  0.33929534  0.42593282  0.38985066     0.06300
C720        C  0.31761860  0.42640274  0.37592581     0.04400
H721        H  0.35490922  0.45573940  0.41332514     0.09500
H722        H  0.31086478  0.41193059  0.36370307     0.08400
C723        C  0.24659166  0.63717055  0.50675696    -0.01200
N724        N  0.23600236  0.52576847  0.60004647    -0.26000
N725        N  0.21247265  0.52165755  0.59452694    -0.33900
C726        C  0.20414534  0.54114895  0.58096758     0.02300
C727        C  0.22339444  0.55838949  0.57840628     0.08300
C728        C  0.24319230  0.54781256  0.59080323    -0.04800
H729        H  0.18561625  0.54257684  0.57333042     0.09000
H730        H  0.26185938  0.55513741  0.59217230     0.10200
Cu731      Cu  0.19456515  0.48892978  0.60683629     0.44200
Cu732      Cu  0.25755882  0.50153260  0.62000332     0.42000
Cu733      Cu  0.22913984  0.45545130  0.65762543     0.43900
N734        N  0.18308039  0.45525220  0.62360158    -0.33400
N735        N  0.19479600  0.44398162  0.64222962    -0.27700
C736        C  0.18185814  0.42340841  0.64862551    -0.03800
C737        C  0.16134906  0.42128439  0.63316679     0.08400
C738        C  0.16272552  0.44180581  0.61759233     0.02200
H739        H  0.18718378  0.41067305  0.66329564     0.09900
H740        H  0.14964685  0.44679783  0.60312981     0.09000
N741        N  0.26551737  0.46875317  0.66433837    -0.34900
N742        N  0.27598983  0.48447086  0.64859813    -0.27000
C743        C  0.29809742  0.49178118  0.65737577    -0.02300
C744        C  0.30216206  0.48035103  0.67998982     0.06300
C745        C  0.28107191  0.46576484  0.68394840     0.04400
H746        H  0.30929253  0.50629475  0.64906507     0.09500
H747        H  0.27655667  0.45544544  0.70066063     0.08400
N748        N  0.94779936  0.63408889  0.32260317    -0.26000
N749        N  0.93407614  0.64962237  0.30923394    -0.33900
C750        C  0.91392002  0.65619286  0.32267012     0.02300
C751        C  0.91490542  0.64431704  0.34553929     0.08300
C752        C  0.93654927  0.63041188  0.34480555    -0.04800
H753        H  0.89923119  0.66818917  0.31598326     0.09000
H754        H  0.94329813  0.61799931  0.35915600     0.10200
Cu755      Cu  0.94192170  0.65994036  0.27236664     0.44200
Cu756      Cu  0.98055556  0.61692287  0.30962681     0.42000
Cu757      Cu  0.98774847  0.62224647  0.24319884     0.43900
N758        N  0.95369224  0.66531742  0.23552205    -0.33400
N759        N  0.97031598  0.65080818  0.22489714    -0.27700
C760        C  0.97701106  0.66044310  0.20280621    -0.03800
C761        C  0.96397976  0.68233162  0.19889972     0.08400
C762        C  0.94908328  0.68454896  0.22013906     0.02200
H763        H  0.99209374  0.65317250  0.19172110     0.09900
H764        H  0.93668200  0.69954929  0.22492944     0.09000
N765        N  0.01175250  0.60241916  0.26526219    -0.34900
N766        N  0.01013709  0.60061501  0.28976112    -0.27000
C767        C  0.02957935  0.58696423  0.29792948    -0.02300
C768        C  0.04408147  0.58016571  0.27748842     0.06300
C769        C  0.03198027  0.59033458  0.25721457     0.04400
H770        H  0.03286967  0.58229406  0.31725486     0.09500
H771        H  0.03710920  0.58863304  0.23780239     0.08400
C772        C  0.12263625  0.50545661  0.26263143    -0.01200
N773        N  0.24297055  0.53081184  0.17662110    -0.26000
N774        N  0.24001930  0.50685557  0.17223615    -0.33900
C775        C  0.21890281  0.49898607  0.18294632     0.02300
C776        C  0.20761509  0.51888226  0.19472063     0.08300
C777        C  0.22358110  0.53881624  0.19041175    -0.04800
H778        H  0.21250398  0.47995605  0.18239221     0.09000
H779        H  0.22116243  0.55780409  0.19650276     0.10200
Cu780      Cu  0.26353703  0.48570259  0.15054770     0.44200
Cu781      Cu  0.27343175  0.55073255  0.16275675     0.42000
Cu782      Cu  0.31148887  0.51718531  0.11663437     0.43900
N783        N  0.28325907  0.46895663  0.12222686    -0.33400
N784        N  0.30034191  0.48063286  0.10894342    -0.27700
C785        C  0.30565678  0.46671603  0.08878437    -0.03800
C786        C  0.29106985  0.44533299  0.08934665     0.08400
C787        C  0.27734341  0.44742684  0.11103234     0.02200
H788        H  0.31767593  0.47273979  0.07377351     0.09900
H789        H  0.26197214  0.43570314  0.11662392     0.09000
N790        N  0.31828272  0.55379008  0.12823328    -0.34900
N791        N  0.30503287  0.56553030  0.14539823    -0.27000
C792        C  0.31530613  0.58800226  0.14956707    -0.02300
C793        C  0.33565286  0.59076993  0.13403418     0.06300
C794        C  0.33702173  0.56874350  0.12081499     0.04400
H795        H  0.30854509  0.60130488  0.16305977     0.09500
H796        H  0.35111416  0.56363215  0.10737265     0.08400
C797        C  0.35351179  0.61157482  0.13352854     0.81500
N798        N  0.36979045  0.61458892  0.15265701    -0.76800
C799        C  0.38737245  0.63272522  0.15170520     0.83900
N800        N  0.38834983  0.64821065  0.13165210    -0.76800
C801        C  0.37164291  0.64582918  0.11277380     0.84000
N802        N  0.35442909  0.62728836  0.11363670    -0.78500
C803        C  0.89584242  0.64444278  0.36540338     0.81500
N804        N  0.87737005  0.62714371  0.36536758    -0.76800
C805        C  0.86056198  0.62624751  0.38432598     0.83900
N806        N  0.86211729  0.64299394  0.40324399    -0.76800
C807        C  0.88019605  0.66070513  0.40318774     0.84000
N808        N  0.89702844  0.66135893  0.38421914    -0.78500
N809        N  0.44734377  0.40373736  0.33111154    -0.26000
N810        N  0.43928670  0.38216653  0.32229124    -0.33900
C811        C  0.42062231  0.37392893  0.33692886     0.02300
C812        C  0.41641552  0.39117737  0.35555371     0.08300
C813        C  0.43354312  0.40989927  0.35118937    -0.04800
H814        H  0.41014623  0.35708750  0.33362401     0.09000
H815        H  0.43576275  0.42683146  0.36180448     0.10200
Cu816      Cu  0.45165059  0.36547535  0.28911936     0.44200
Cu817      Cu  0.47671446  0.42445165  0.31565996     0.42000
Cu818      Cu  0.48587183  0.40786329  0.25206773     0.43900
N819        N  0.46486143  0.35632114  0.25344286    -0.33400
N820        N  0.47635570  0.37303733  0.23959385    -0.27700
C821        C  0.48420538  0.36249455  0.21838062    -0.03800
C822        C  0.47763226  0.33762568  0.21860182     0.08400
C823        C  0.46510463  0.33441367  0.24115644     0.02200
H824        H  0.49470630  0.37221975  0.20422023     0.09900
H825        H  0.45780013  0.31722676  0.24862367     0.09000
N826        N  0.50716949  0.43410285  0.26986761    -0.34900
N827        N  0.50515625  0.43984486  0.29369040    -0.27000
C828        C  0.52459685  0.45450532  0.29992788    -0.02300
C829        C  0.53960837  0.45771516  0.27896192     0.06300
C830        C  0.52761541  0.44468338  0.26033561     0.04400
H831        H  0.52814630  0.46132113  0.31853661     0.09500
H832        H  0.53362694  0.44233210  0.24125474     0.08400
C833        C  0.62656256  0.51982369  0.25627531    -0.01200
N834        N  0.46762060  0.65275520  0.28714818    -0.26000
N835        N  0.44717835  0.66352711  0.27907395    -0.33900
C836        C  0.44040155  0.68090266  0.29592885     0.02300
C837        C  0.45762036  0.68083233  0.31543426     0.08300
C838        C  0.47447879  0.66263705  0.30893883    -0.04800
H839        H  0.42480024  0.69331351  0.29357391     0.09000
H840        H  0.49177191  0.65830312  0.31819364     0.10200
Cu841      Cu  0.43305434  0.65454200  0.24364742     0.44200
Cu842      Cu  0.48838968  0.62882147  0.26647995     0.42000
Cu843      Cu  0.47598169  0.61497860  0.20378630     0.43900
N844        N  0.42550359  0.64165756  0.20734899    -0.33400
N845        N  0.44075701  0.62818882  0.19333705    -0.27700
C846        C  0.42960240  0.62349711  0.17136003    -0.03800
C847        C  0.40635294  0.63435234  0.17143315     0.08400
C848        C  0.40429625  0.64558068  0.19452474     0.02200
H849        H  0.43767484  0.61252214  0.15654331     0.09900
H850        H  0.38844142  0.65573682  0.20158380     0.09000
N851        N  0.50897002  0.60379632  0.22130993    -0.34900
N852        N  0.51269096  0.60941952  0.24490451    -0.27000
C853        C  0.53449915  0.60033376  0.25248668    -0.02300
C854        C  0.54561814  0.58820154  0.23278217     0.06300
C855        C  0.52872680  0.59056600  0.21318316     0.04400
H856        H  0.54120404  0.60170861  0.27142224     0.09500
H857        H  0.53054649  0.58312928  0.19456269     0.08400
N858        N  0.54984717  0.12630172  0.33516753    -0.26000
N859        N  0.56330663  0.14113629  0.32069236    -0.33900
C860        C  0.58536601  0.14544911  0.33175526     0.02300
C861        C  0.58601887  0.13279825  0.35417902     0.08300
C862        C  0.56319169  0.12094014  0.35580350    -0.04800
H863        H  0.59968496  0.15746522  0.32427924     0.09000
H864        H  0.55656233  0.10965295  0.37113437     0.10200
Cu865      Cu  0.55127592  0.15694642  0.28713873     0.44200
Cu866      Cu  0.51313965  0.11482027  0.32719509     0.42000
Cu867      Cu  0.48565987  0.15400232  0.28187269     0.43900
N868        N  0.53206780  0.17266495  0.25717723    -0.33400
N869        N  0.50759078  0.17186179  0.25624221    -0.27700
C870        C  0.49965875  0.18303252  0.23542407    -0.03800
C871        C  0.52005104  0.19148433  0.22224255     0.08400
C872        C  0.54042493  0.18472903  0.23673706     0.02200
H873        H  0.48028577  0.18523280  0.23058654     0.09900
H874        H  0.55981273  0.18824141  0.23274841     0.09000
N875        N  0.46631634  0.12582787  0.29874394    -0.34900
N876        N  0.47637135  0.10983772  0.31445426    -0.27000
C877        C  0.46066283  0.09034885  0.31692037    -0.02300
C878        C  0.43988513  0.09453159  0.30201635     0.06300
C879        C  0.44432281  0.11720807  0.29087082     0.04400
H880        H  0.46512610  0.07333390  0.32668704     0.09500
H881        H  0.43372786  0.12542879  0.27583943     0.08400
N882        N  0.64244296  0.23940918  0.98181174    -0.26000
N883        N  0.65957888  0.25184953  0.96939085    -0.33900
C884        C  0.67976742  0.23709735  0.96699479     0.02300
C885        C  0.67497770  0.21431883  0.97863969     0.08300
C886        C  0.65087473  0.21664821  0.98739049    -0.04800
H887        H  0.69710136  0.24308104  0.95875151     0.09000
H888        H  0.64041063  0.20334164  0.99823564     0.10200
Cu889      Cu  0.65345291  0.28908366  0.95880414     0.44200
Cu890      Cu  0.61159111  0.25563416  0.99733783     0.42000
Cu891      Cu  0.60434855  0.32115680  0.99547440     0.43900
N892        N  0.63785737  0.32386040  0.94958941    -0.33400
N893        N  0.61990105  0.33489015  0.96241375    -0.27700
C894        C  0.61242992  0.35530950  0.94991128    -0.03800
C895        C  0.62639953  0.35748653  0.92837256     0.08400
C896        C  0.64237668  0.33731739  0.92880648     0.02200
H897        H  0.59752570  0.36743435  0.95583402     0.09900
H898        H  0.65560093  0.33221640  0.91450846     0.09000
N899        N  0.58967550  0.29931779  0.02420072    -0.34900
N900        N  0.59176593  0.27490064  0.02372964    -0.27000
C901        C  0.58118331  0.26517876  0.04414269    -0.02300
C902        C  0.57186621  0.28430459  0.05857100     0.06300
C903        C  0.57745450  0.30580778  0.04518256     0.04400
H904        H  0.58029330  0.24547834  0.04799583     0.09500
H905        H  0.57329779  0.32475233  0.05041865     0.08400
C906        C  0.50456567  0.26333943  0.14177699    -0.01200
C907        C  0.62352566  0.37626395  0.90845626     0.81500
N908        N  0.64025923  0.39509900  0.90626950    -0.76800
C909        C  0.63677604  0.41347663  0.88918427     0.83900
N910        N  0.61650126  0.41278707  0.87399028    -0.76800
C911        C  0.60008506  0.39353105  0.87543133     0.84000
N912        N  0.60362476  0.37539504  0.89280962    -0.78500
C913        C  0.62541898  0.15428516  0.40670517     0.81500
N914        N  0.60598901  0.15191452  0.39065464    -0.76800
C915        C  0.60598816  0.13370885  0.37305709     0.83900
N916        N  0.62536126  0.11747325  0.37190679    -0.76800
C917        C  0.64469372  0.11940181  0.38816013     0.84000
N918        N  0.64478130  0.13804627  0.40530391    -0.78500
N919        N  0.88025090  0.18671646  0.55919719    -0.26000
N920        N  0.86535784  0.20164980  0.57195082    -0.33900
C921        C  0.86148206  0.19170521  0.59476229     0.02300
C922        C  0.87462780  0.16961956  0.59653181     0.08300
C923        C  0.88608821  0.16699166  0.57358406    -0.04800
H924        H  0.84939330  0.19960295  0.60879008     0.09000
H925        H  0.89739187  0.15150590  0.56755385     0.10200
Cu926      Cu  0.84951604  0.23422541  0.55714591     0.44200
Cu927      Cu  0.89152583  0.19291149  0.52219440     0.42000
Cu928      Cu  0.85509612  0.23722182  0.48986327     0.43900
N929        N  0.83526679  0.26350571  0.53546865    -0.33400
N930        N  0.83680733  0.26353089  0.51088133    -0.27700
C931        C  0.82738433  0.28478723  0.50192636    -0.03800
C932        C  0.81949946  0.29926122  0.52166614     0.08400
C933        C  0.82453585  0.28501767  0.54274537     0.02200
H934        H  0.82673641  0.28946831  0.48232908     0.09900
H935        H  0.82140346  0.29024275  0.56194307     0.09000
N936        N  0.88441252  0.21918551  0.47310855    -0.34900
N937        N  0.89908799  0.20378261  0.48534500    -0.27000
C938        C  0.91983181  0.20022029  0.47169753    -0.02300
C939        C  0.91808826  0.21413685  0.44984207     0.06300
C940        C  0.89520231  0.22568541  0.45145249     0.04400
H941        H  0.93581097  0.18986571  0.47812640     0.09500
H942        H  0.88832895  0.24019118  0.43930815     0.08400
C943        C  0.85573500  0.11528067  0.63487945     0.81500
N944        N  0.87283335  0.11603341  0.65360756    -0.76800
C945        C  0.89071141  0.13400840  0.65394031     0.83900
N946        N  0.89093572  0.15169451  0.63569608    -0.76800
C947        C  0.87384899  0.15110624  0.61694796     0.84000
N948        N  0.85655336  0.13266336  0.61646871    -0.78500
C949        C  0.88801908  0.38125926  0.15464019     0.81500
N950        N  0.88768690  0.36463560  0.13549817    -0.76800
C951        C  0.87220010  0.36815516  0.11569248     0.83900
N952        N  0.85722093  0.38856752  0.11504057    -0.76800
C953        C  0.85686417  0.40474130  0.13453904     0.84000
N954        N  0.87226470  0.40095493  0.15422344    -0.78500
N955        N  0.94429463  0.35597133  0.28476667    -0.26000
N956        N  0.95997757  0.37162772  0.29529905    -0.33900
C957        C  0.96732878  0.36263510  0.31738018     0.02300
C958        C  0.95590357  0.34003861  0.32132621     0.08300
C959        C  0.94132158  0.33631527  0.30022248    -0.04800
H960        H  0.98223384  0.37051323  0.32835336     0.09000
H961        H  0.93148700  0.31947476  0.29535435     0.10200
Cu962      Cu  0.97760330  0.39980510  0.27660657     0.44200
Cu963      Cu  0.93249846  0.36145632  0.24775450     0.42000
Cu964      Cu  0.97161541  0.40720217  0.21174028     0.43900
N965        N  0.00325519  0.41909280  0.25593078    -0.33400
N966        N  0.00197320  0.42193091  0.23155262    -0.27700
C967        C  0.02245500  0.43443033  0.22395266    -0.03800
C968        C  0.03734845  0.43929483  0.24469685     0.08400
C969        C  0.02427886  0.42929037  0.26451693     0.02200
H970        H  0.02635745  0.43929727  0.20478396     0.09900
H971        H  0.02940015  0.42963534  0.28398900     0.09000
N972        N  0.93907482  0.38984521  0.19854578    -0.34900
N973        N  0.92539718  0.37346313  0.21102573    -0.27000
C974        C  0.90570662  0.36701845  0.19682166    -0.02300
C975        C  0.90706942  0.37974029  0.17439977     0.06300
C976        C  0.92824469  0.39420561  0.17631727     0.04400
H977        H  0.89095437  0.35468797  0.20277052     0.09500
H978        H  0.93495363  0.40750402  0.16273954     0.08400
C979        C  0.99412755  0.25981038  0.38510035    -0.01200
N980        N  0.27948312  0.53927177  0.86834090    -0.26000
N981        N  0.26826272  0.55614094  0.85449650    -0.33900
C982        C  0.28309295  0.56189116  0.83511800     0.02300
C983        C  0.30483920  0.54818447  0.83710897     0.08300
C984        C  0.30178049  0.53403270  0.85839709    -0.04800
H985        H  0.27750589  0.57329204  0.81947801     0.09000
H986        H  0.31346134  0.51878970  0.86436639     0.10200
Cu987      Cu  0.23175164  0.56690383  0.86120005     0.44200
Cu988      Cu  0.26101812  0.51931893  0.89542006     0.42000
Cu989      Cu  0.19712485  0.53378406  0.91086292     0.43900
N990        N  0.19657702  0.57693700  0.87375973    -0.33400
N991        N  0.18446303  0.56605685  0.89234099    -0.27700
C992        C  0.16339477  0.57898616  0.89668094    -0.03800
C993        C  0.16212085  0.59852895  0.87983582     0.08400
C994        C  0.18339916  0.59659287  0.86562649     0.02200
H995        H  0.14999389  0.57453127  0.91105518     0.09900
H996        H  0.18932754  0.60907986  0.85095425     0.09000
N997        N  0.21554965  0.50142141  0.92330852    -0.34900
N998        N  0.23877031  0.49659262  0.91690135    -0.27000
C999        C  0.24566561  0.47461198  0.92645196    -0.02300
C1000       C  0.22606571  0.46479018  0.93985031     0.06300
C1001       C  0.20721960  0.48244314  0.93764770     0.04400
H1002       H  0.26400765  0.46669312  0.92436512     0.09500
H1003       H  0.18884200  0.48150749  0.94576723     0.08400
C1004       C  0.12465755  0.65450833  0.89450274     0.81500
N1005       N  0.14233379  0.63648452  0.89568292    -0.76800
C1006       C  0.14313846  0.61821165  0.87821634     0.83900
N1007       N  0.12675854  0.61857442  0.85891796    -0.76800
C1008       C  0.10887159  0.63639552  0.85771711     0.84000
N1009       N  0.10763055  0.65409981  0.87576684    -0.78500
C1010       C  0.40084089  0.13184157  0.87458237     0.81500
N1011       N  0.40141659  0.15010962  0.89212917    -0.76800
C1012       C  0.38216549  0.15300473  0.90837897     0.83900
N1013       N  0.36232094  0.13736699  0.90710096    -0.76800
C1014       C  0.36185526  0.11858649  0.89015244     0.84000
N1015       N  0.38109735  0.11596938  0.87381827    -0.78500
N1016       N  0.36179124  0.29040136  0.98262978    -0.26000
N1017       N  0.34562618  0.27496895  0.97243602    -0.33900
C1018       C  0.32368697  0.28686342  0.97016345     0.02300
C1019       C  0.32636433  0.31099435  0.97908020     0.08300
C1020       C  0.35081608  0.31245206  0.98674354    -0.04800
H1021       H  0.30676072  0.27829319  0.96353597     0.09000
H1022       H  0.35933941  0.32765511  0.99678325     0.10200
Cu1023     Cu  0.35480560  0.23810425  0.96332521     0.44200
Cu1024     Cu  0.39564158  0.27900298  0.99659005     0.42000
Cu1025     Cu  0.41442216  0.21561803  0.98639847     0.43900
N1026       N  0.37223395  0.20559350  0.95047798    -0.33400
N1027       N  0.39481564  0.19863179  0.95735513    -0.27700
C1028       C  0.40189989  0.17908752  0.94331577    -0.03800
C1029       C  0.38269389  0.17305429  0.92724126     0.08400
C1030       C  0.36414583  0.19013317  0.93244882     0.02200
H1031       H  0.41959631  0.16969765  0.94494797     0.09900
H1032       H  0.34643057  0.19181245  0.92308622     0.09000
N1033       N  0.42657650  0.23692657  0.01662694    -0.34900
N1034       N  0.42032332  0.26046463  0.01943179    -0.27000
C1035       C  0.42953761  0.26895462  0.04104268    -0.02300
C1036       C  0.44210469  0.24982610  0.05295483     0.06300
C1037       C  0.43987501  0.22977478  0.03666563     0.04400
H1038       H  0.42685362  0.28773634  0.04755383     0.09500
H1039       H  0.44653695  0.21104282  0.03946673     0.08400
C1040       C  0.24927426  0.38384849  0.00884579    -0.01200
C1041       C  0.25125717  0.88443413  0.01452740    -0.01200
N1042       N  0.27042829  0.99147320  0.91238520    -0.26000
N1043       N  0.28834427  0.00054079  0.92642022    -0.33900
C1044       C  0.29163120  0.98493787  0.94594564     0.02300
C1045       C  0.27457662  0.96547259  0.94390079     0.08300
C1046       C  0.26166942  0.97036795  0.92228358    -0.04800
H1047       H  0.30456426  0.98806837  0.96102881     0.09000
H1048       H  0.24636792  0.95980940  0.91463335     0.10200
Cu1049     Cu  0.30444640  0.03500518  0.91681941     0.44200
Cu1050     Cu  0.25551521  0.01018021  0.88304458     0.42000
Cu1051     Cu  0.27066890  0.07201489  0.86671749     0.43900
N1052       N  0.31697454  0.06838266  0.90024091    -0.33400
N1053       N  0.30541928  0.08117073  0.88249203    -0.27700
C1054       C  0.31970629  0.10083532  0.87609836    -0.03800
C1055       C  0.34112669  0.10050015  0.89037043     0.08400
C1056       C  0.33868254  0.07979180  0.90549092     0.02200
H1057       H  0.31481814  0.11445271  0.86208266     0.09900
H1058       H  0.35188204  0.07334129  0.91924516     0.09000
N1059       N  0.23745302  0.05483871  0.85508557    -0.34900
N1060       N  0.23290532  0.03165073  0.86163390    -0.27000
C1061       C  0.21090096  0.02441689  0.85273114    -0.02300
C1062       C  0.20055299  0.04382409  0.83960672     0.06300
C1063       C  0.21807024  0.06294089  0.84121303     0.04400
H1064       H  0.20340127  0.00590511  0.85503596     0.09500
H1065       H  0.21686674  0.08121144  0.83288753     0.08400
N1066       N  0.26666827  0.05450924  0.17202979    -0.26000
N1067       N  0.27240337  0.03179797  0.16486165    -0.33900
C1068       C  0.29445374  0.02517407  0.17429451     0.02300
C1069       C  0.30337536  0.04442736  0.18862988     0.08300
C1070       C  0.28512285  0.06281601  0.18699059    -0.04800
H1071       H  0.30269343  0.00698853  0.17205878     0.09000
H1072       H  0.28503767  0.08058282  0.19638806     0.10200
Cu1073     Cu  0.24959710  0.00979870  0.14403743     0.44200
Cu1074     Cu  0.23296335  0.07071399  0.16007277     0.42000
Cu1075     Cu  0.19711053  0.03303254  0.11228770     0.43900
N1076       N  0.23156318  0.98963826  0.11749560    -0.33400
N1077       N  0.21281975  0.99799855  0.10406537    -0.27700
C1078       C  0.20859352  0.98152288  0.08547885    -0.03800
C1079       C  0.22578876  0.96219853  0.08754514     0.08400
C1080       C  0.23969427  0.96805749  0.10826278     0.02200
H1081       H  0.19518176  0.98415423  0.07072007     0.09900
H1082       H  0.25564787  0.95810796  0.11537663     0.09000
N1083       N  0.18618399  0.06788150  0.12690318    -0.34900
N1084       N  0.19860968  0.08089185  0.14385270    -0.27000
C1085       C  0.18556029  0.10164910  0.14920228    -0.02300
C1086       C  0.16409346  0.10195636  0.13499263     0.06300
C1087       C  0.16509922  0.08025539  0.12115022     0.04400
H1088       H  0.19122472  0.11549957  0.16264479     0.09500
H1089       H  0.15125905  0.07371546  0.10809968     0.08400
C1090       C  0.99242051  0.26089421  0.88621526    -0.01200
N1091       N  0.88146552  0.29969188  0.97191715    -0.26000
N1092       N  0.89534399  0.31627929  0.98347046    -0.33900
C1093       C  0.91535081  0.32111994  0.96912778     0.02300
C1094       C  0.91398461  0.30674447  0.94757317     0.08300
C1095       C  0.89202120  0.29365201  0.95004209    -0.04800
H1096       H  0.93094964  0.33231969  0.97506877     0.09000
H1097       H  0.88602487  0.27828471  0.93853413     0.10200
Cu1098     Cu  0.88825986  0.32660054  0.02056163     0.44200
Cu1099     Cu  0.85431365  0.27979966  0.99003432     0.42000
Cu1100     Cu  0.84739281  0.28436509  0.05696823     0.43900
N1101       N  0.87714982  0.33280925  0.05762243    -0.33400
N1102       N  0.86285209  0.31762033  0.07085333    -0.27700
C1103       C  0.85932028  0.32763886  0.09366353    -0.03800
C1104       C  0.87184523  0.35013923  0.09484526     0.08400
C1105       C  0.88280879  0.35281797  0.07165318     0.02200
H1106       H  0.84798475  0.31942008  0.10816170     0.09900
H1107       H  0.89396018  0.36833864  0.06534063     0.09000
N1108       N  0.83352167  0.25445739  0.03579808    -0.34900
N1109       N  0.83593539  0.25383783  0.01130737    -0.27000
C1110       C  0.82558309  0.23305078  0.00238255    -0.02300
C1111       C  0.81601607  0.21940674  0.02201226     0.06300
C1112       C  0.82125651  0.23371623  0.04304694     0.04400
H1113       H  0.82467152  0.22860583  0.98276972     0.09500
H1114       H  0.81662106  0.22936995  0.06217681     0.08400
N1115       N  0.10981871  0.19938598  0.06821644    -0.26000
N1116       N  0.12899252  0.21126759  0.07825549    -0.33900
C1117       C  0.13760551  0.19764115  0.09757949     0.02300
C1118       C  0.12314765  0.17644646  0.09999677     0.08300
C1119       C  0.10563426  0.17832274  0.08123607    -0.04800
H1120       H  0.15295032  0.20305569  0.10939693     0.09000
H1121       H  0.09098888  0.16515431  0.07717980     0.10200
Cu1122     Cu  0.14264024  0.24635901  0.06663920     0.44200
Cu1123     Cu  0.09019848  0.21064254  0.03626097     0.42000
Cu1124     Cu  0.10915735  0.27057116  0.01590534     0.43900
N1125       N  0.15053161  0.28173269  0.05127349    -0.33400
N1126       N  0.13690772  0.29044951  0.03279289    -0.27700
C1127       C  0.14650092  0.31192881  0.02451859    -0.03800
C1128       C  0.16741320  0.31743135  0.03831150     0.08400
C1129       C  0.16945045  0.29785359  0.05526360     0.02200
H1130       H  0.13981359  0.32184836  0.00830799     0.09900
H1131       H  0.18460151  0.29463376  0.06808699     0.09000
N1132       N  0.08576781  0.24841717  0.99557072    -0.34900
N1133       N  0.07777183  0.22632361  0.00265581    -0.27000
C1134       C  0.06241572  0.21745414  0.98480093    -0.02300
C1135       C  0.06127276  0.23481533  0.96551565     0.06300
C1136       C  0.07628636  0.25410728  0.97324131     0.04400
H1137       H  0.05294069  0.19974782  0.98572668     0.09500
H1138       H  0.07952781  0.27151180  0.96367657     0.08400
C1139       C  0.87343265  0.00834279  0.25550030    -0.01200
N1140       N  0.01649299  0.85991459  0.23060458    -0.26000
N1141       N  0.03773174  0.85072311  0.23885816    -0.33900
C1142       C  0.04633397  0.83430232  0.22190942     0.02300
C1143       C  0.02998080  0.83357579  0.20184751     0.08300
C1144       C  0.01132719  0.85006679  0.20816301    -0.04800
H1145       H  0.06271701  0.82296898  0.22443349     0.09000
H1146       H  0.99422348  0.85320017  0.19804952     0.10200
Cu1147     Cu  0.05305674  0.86062108  0.27359864     0.44200
Cu1148     Cu  0.99358183  0.88279810  0.25154315     0.42000
Cu1149     Cu  0.01875268  0.90786334  0.30882287     0.43900
N1150       N  0.06559737  0.87585053  0.30753385    -0.33400
N1151       N  0.05380744  0.89376803  0.31966099    -0.27700
C1152       C  0.06743659  0.90020126  0.33981191    -0.03800
C1153       C  0.08857372  0.88544115  0.34073639     0.08400
C1154       C  0.08667014  0.87018371  0.32000062     0.02200
H1155       H  0.06212623  0.91430038  0.35313746     0.09900
H1156       H  0.09990070  0.85621851  0.31416968     0.09000
N1157       N  0.98307789  0.91674569  0.29495205    -0.34900
N1158       N  0.97373691  0.90644637  0.27464855    -0.27000
C1159       C  0.95120924  0.91623077  0.26996241    -0.02300
C1160       C  0.94593515  0.93387333  0.28790333     0.06300
C1161       C  0.96670855  0.93381082  0.30337871     0.04400
H1162       H  0.94042483  0.91241220  0.25339080     0.09500
H1163       H  0.97019170  0.94618863  0.31884010     0.08400
N1164       N  0.02306554  0.15153739  0.28870994    -0.26000
N1165       N  0.03917360  0.16637362  0.27752173    -0.33900
C1166       C  0.04273186  0.18648462  0.29208618     0.02300
C1167       C  0.02857558  0.18375856  0.31361238     0.08300
C1168       C  0.01633440  0.16142907  0.31067090    -0.04800
H1169       H  0.05349514  0.20261493  0.28673108     0.09000
H1170       H  0.00157860  0.15424094  0.32235384     0.10200
Cu1171     Cu  0.05310359  0.15869535  0.24174154     0.44200
Cu1172     Cu  0.00552433  0.12256268  0.27089293     0.42000
Cu1173     Cu  0.02162015  0.10791880  0.20772197     0.43900
N1174       N  0.06548324  0.14390725  0.20766083    -0.33400
N1175       N  0.05474188  0.12505513  0.19596836    -0.27700
C1176       C  0.06826279  0.11942206  0.17554240    -0.03800
C1177       C  0.08827761  0.13554435  0.17413146     0.08400
C1178       C  0.08583527  0.15088357  0.19468967     0.02200
H1179       H  0.06365090  0.10486783  0.16244717     0.09900
H1180       H  0.09816461  0.16584536  0.20001528     0.09000
N1181       N  0.98867139  0.09559860  0.22477613    -0.34900
N1182       N  0.98322530  0.10134097  0.24807252    -0.27000
C1183       C  0.96090271  0.09191347  0.25403748    -0.02300
C1184       C  0.95156402  0.07936474  0.23363896     0.06300
C1185       C  0.96983107  0.08190567  0.21539211     0.04400
H1186       H  0.95237781  0.09355622  0.27221931     0.09500
H1187       H  0.96943614  0.07444216  0.19669536     0.08400
C1188       C  0.14387546  0.12067457  0.13560262     0.81500
N1189       N  0.12589154  0.11932895  0.15345767    -0.76800
C1190       C  0.10754843  0.13673029  0.15449317     0.83900
N1191       N  0.10704256  0.15533775  0.13731688    -0.76800
C1192       C  0.12480702  0.15684021  0.11931428     0.84000
N1193       N  0.14329266  0.13953120  0.11859187    -0.78500
N1194       N  0.52124732  0.85938624  0.28489105    -0.26000
N1195       N  0.53927002  0.84626180  0.27463587    -0.33900
C1196       C  0.54470341  0.82712796  0.28999821     0.02300
C1197       C  0.52956175  0.82870765  0.31101085     0.08300
C1198       C  0.51503737  0.84943535  0.30698859    -0.04800
H1199       H  0.55796083  0.81264689  0.28578627     0.09000
H1200       H  0.49961642  0.85564399  0.31833666     0.10200
Cu1201     Cu  0.55391581  0.85546848  0.23944796     0.44200
Cu1202     Cu  0.50258080  0.88730105  0.26667509     0.42000
Cu1203     Cu  0.52294907  0.90868862  0.20713137     0.43900
N1204       N  0.56653779  0.87177760  0.20605992    -0.33400
N1205       N  0.55618816  0.89135629  0.19515710    -0.27700
C1206       C  0.57024089  0.89791504  0.17532302    -0.03800
C1207       C  0.59011533  0.88164924  0.17339782     0.08400
C1208       C  0.58704473  0.86525257  0.19309008     0.02200
H1209       H  0.56615094  0.91329342  0.16299163     0.09900
H1210       H  0.59919466  0.85000049  0.19799091     0.09000
N1211       N  0.48980368  0.92136540  0.22412955    -0.34900
N1212       N  0.48268598  0.91255153  0.24599792    -0.27000
C1213       C  0.46171321  0.92386463  0.25327030    -0.02300
C1214       C  0.45485986  0.94076344  0.23524248     0.06300
C1215       C  0.47329629  0.93900910  0.21705620     0.04400
H1216       H  0.45285047  0.92103295  0.27116199     0.09500
H1217       H  0.47517760  0.95049954  0.20060966     0.08400
C1218       C  0.64440554  0.90140050  0.13495087     0.81500
N1219       N  0.64472128  0.88330068  0.11726320    -0.76800
C1220       C  0.62819797  0.86416860  0.11823610     0.83900
N1221       N  0.61117993  0.86323660  0.13702125    -0.76800
C1222       C  0.61008457  0.88170581  0.15431820     0.84000
N1223       N  0.62682056  0.90072609  0.15325578    -0.78500
C1224       C  0.14216301  0.90655031  0.37949722     0.81500
N1225       N  0.14457510  0.88709233  0.39560015    -0.76800
C1226       C  0.12940437  0.86687751  0.39385151     0.83900
N1227       N  0.11176890  0.86615252  0.37560571    -0.76800
C1228       C  0.10866495  0.88580495  0.35979590     0.84000
N1229       N  0.12389254  0.90597783  0.36190402    -0.78500
N1230       N  0.20665328  0.03391939  0.40562719    -0.26000
N1231       N  0.22735478  0.04113018  0.39450839    -0.33900
C1232       C  0.23438980  0.06330406  0.40333946     0.02300
C1233       C  0.21782726  0.07065097  0.42153954     0.08300
C1234       C  0.20026324  0.05158248  0.42241476    -0.04800
H1235       H  0.25196037  0.07204163  0.39892859     0.09000
H1236       H  0.18549045  0.04956820  0.43594516     0.10200
Cu1237     Cu  0.24996660  0.01846006  0.37372239     0.44200
Cu1238     Cu  0.19127635  0.99831839  0.39874852     0.42000
Cu1239     Cu  0.23122726  0.95772547  0.35861456     0.43900
N1240       N  0.27338071  0.99414440  0.35585065    -0.33400
N1241       N  0.26636897  0.97177351  0.34869197    -0.27700
C1242       C  0.28449322  0.96211817  0.33420314    -0.03800
C1243       C  0.30404839  0.97906635  0.33294757     0.08400
C1244       C  0.29614031  0.99910930  0.34686695     0.02200
H1245       H  0.28301538  0.94475678  0.32419974     0.09900
H1246       H  0.30526953  0.01696905  0.34835640     0.09000
N1247       N  0.19575458  0.94802836  0.37210498    -0.34900
N1248       N  0.18141446  0.96220544  0.38634783    -0.27000
C1249       C  0.16005293  0.94974360  0.39108391    -0.02300
C1250       C  0.16098706  0.92676241  0.37935976     0.06300
C1251       C  0.18389295  0.92639311  0.36763147     0.04400
H1252       H  0.14494700  0.95685226  0.40231046     0.09500
H1253       H  0.19142700  0.91139499  0.35655297     0.08400
C1254       C  0.37754889  0.01428221  0.26195196    -0.01200
C1255       C  0.39650626  0.39058560  0.37451923     0.81500
N1256       N  0.37840976  0.40821588  0.37436484    -0.76800
C1257       C  0.35867966  0.40646799  0.39015079     0.83900
N1258       N  0.35741638  0.38719377  0.40664281    -0.76800
C1259       C  0.37598168  0.36997720  0.40760037     0.84000
N1260       N  0.39530550  0.37162040  0.39128559    -0.78500
C1261       C  0.64410747  0.61598698  0.63140039     0.81500
N1262       N  0.62815066  0.61646308  0.65106631    -0.76800
C1263       C  0.60906859  0.63299228  0.65159814     0.83900
N1264       N  0.60645875  0.64971160  0.63274620    -0.76800
C1265       C  0.62270459  0.64980939  0.61330675     0.84000
N1266       N  0.64128338  0.63266669  0.61250455    -0.78500
C1267       C  0.87928656  0.86958393  0.90453936     0.81500
N1268       N  0.86010981  0.88543842  0.90047492    -0.76800
C1269       C  0.86149382  0.90280770  0.88215251     0.83900
N1270       N  0.88183317  0.90352706  0.86700092    -0.76800
C1271       C  0.90091166  0.88723357  0.87056665     0.84000
N1272       N  0.89976070  0.87064118  0.88969910    -0.78500
C1273       C  0.34911674  0.98479750  0.32185636     0.24900
C1274       C  0.32446563  0.98040191  0.31447998    -0.23300
C1275       C  0.31871482  0.98135678  0.28915900     0.19800
C1276       C  0.33609976  0.99022943  0.27198305     0.24800
C1277       C  0.35987172  0.99918973  0.27982894    -0.23200
C1278       C  0.36704484  0.99254509  0.30434834     0.19700
F1279       F  0.39077261  0.99589516  0.31214317    -0.13200
F1280       F  0.35558027  0.98255525  0.34619408    -0.15500
F1281       F  0.32900002  0.99019687  0.24773411    -0.15500
F1282       F  0.29550661  0.97551676  0.28115641    -0.13200
C1283       C  0.44156643  0.97987401  0.25534862     0.24900
C1284       C  0.43603277  0.96045775  0.23909877    -0.23300
C1285       C  0.41142979  0.95750566  0.23107094     0.19800
C1286       C  0.39278709  0.97430736  0.23856050     0.24800
C1287       C  0.39832330  0.99520635  0.25377858    -0.23200
C1288       C  0.42313717  0.99628657  0.26334063     0.19700
F1289       F  0.42979842  0.01176745  0.28210257    -0.13200
F1290       F  0.46484252  0.98207572  0.26487488    -0.15500
F1291       F  0.36927430  0.96994468  0.23074576    -0.15500
F1292       F  0.40524018  0.93778573  0.21661355    -0.13200
C1293       C  0.90734875  0.07187902  0.24685065     0.24900
C1294       C  0.92846438  0.06417312  0.23344664    -0.23300
C1295       C  0.92809208  0.04072051  0.22218545     0.19800
C1296       C  0.90892752  0.02395185  0.22752042     0.24800
C1297       C  0.88958480  0.03006647  0.24457387    -0.23200
C1298       C  0.88762576  0.05540787  0.25146610     0.19700
F1299       F  0.86698448  0.06463017  0.26255687    -0.13200
F1300       F  0.90595623  0.09537852  0.25589823    -0.15500
F1301       F  0.91089894  0.00063401  0.21815405    -0.15500
F1302       F  0.94745771  0.03297097  0.20797721    -0.13200
C1303       C  0.90116240  0.94688579  0.28236537     0.24900
C1304       C  0.92630185  0.95318571  0.28572364    -0.23300
C1305       C  0.93299875  0.97822952  0.28453476     0.19800
C1306       C  0.91588385  0.99613863  0.27680299     0.24800
C1307       C  0.89138726  0.98942959  0.26891823    -0.23200
C1308       C  0.88364102  0.96509783  0.27547422     0.19700
F1309       F  0.85948460  0.95828195  0.27325349    -0.13200
F1310       F  0.89363869  0.92299005  0.28530665    -0.15500
F1311       F  0.92377744  0.02006439  0.27756239    -0.15500
F1312       F  0.95666878  0.98539007  0.28953480    -0.13200
C1313       C  0.03849391  0.25407250  0.90190031     0.24900
C1314       C  0.01259938  0.24945473  0.90388557    -0.23300
C1315       C  0.00487378  0.23333377  0.92349528     0.19800
C1316       C  0.02106813  0.22694557  0.94293243     0.24800
C1317       C  0.04571940  0.23532882  0.94267193    -0.23200
C1318       C  0.05462223  0.24733218  0.92117265     0.19700
F1319       F  0.07911333  0.25301996  0.91896900    -0.13200
F1320       F  0.04875320  0.26465226  0.88139117    -0.15500
F1321       F  0.01194548  0.21453371  0.96298661    -0.15500
F1322       F  0.98076743  0.22615772  0.92542791    -0.13200
C1323       C  0.97674928  0.28293648  0.92719947     0.24900
C1324       C  0.97254874  0.27547509  0.90200099    -0.23300
C1325       C  0.95022735  0.28419742  0.89095659     0.19800
C1326       C  0.93132547  0.29500202  0.90549164     0.24800
C1327       C  0.93482987  0.29913775  0.93110316    -0.23200
C1328       C  0.95800933  0.29373502  0.94148222     0.19700
F1329       F  0.96243923  0.29792195  0.96602176    -0.13200
F1330       F  0.99922451  0.28101259  0.93841900    -0.15500
F1331       F  0.90946149  0.30120461  0.89454569    -0.15500
F1332       F  0.94607724  0.28114133  0.86622018    -0.13200
C1333       C  0.32321283  0.04932844  0.23050902     0.24900
C1334       C  0.32514908  0.04234700  0.20550564    -0.23300
C1335       C  0.34675390  0.02989672  0.19762349     0.19800
C1336       C  0.36485390  0.02222208  0.21482097     0.24800
C1337       C  0.36130128  0.02602372  0.24072370    -0.23200
C1338       C  0.34104957  0.04158286  0.24777523     0.19700
F1339       F  0.33710206  0.04740744  0.27204800    -0.13200
F1340       F  0.30289185  0.06175622  0.23879707    -0.15500
F1341       F  0.38570805  0.01150040  0.20566963    -0.15500
F1342       F  0.35018072  0.02477070  0.17309579    -0.13200
C1343       C  0.25638603  0.93602417  0.06428764     0.24900
C1344       C  0.23154521  0.94181424  0.06977717    -0.23300
C1345       C  0.21273809  0.92772578  0.05861852     0.19800
C1346       C  0.21856282  0.90834084  0.04209782     0.24800
C1347       C  0.24374187  0.90205843  0.03649721    -0.23200
C1348       C  0.26236247  0.91665375  0.04810278     0.19700
F1349       F  0.28677676  0.91256553  0.04351240    -0.13200
F1350       F  0.27520543  0.94994334  0.07370217    -0.15500
F1351       F  0.19916004  0.89679727  0.03092109    -0.15500
F1352       F  0.18853653  0.93272503  0.06367733    -0.13200
C1353       C  0.23909769  0.91807416  0.98250657     0.24900
C1354       C  0.25816851  0.90366621  0.99363392    -0.23300
C1355       C  0.28313081  0.91134693  0.98870613     0.19800
C1356       C  0.28835746  0.93148952  0.97291066     0.24800
C1357       C  0.26917693  0.94482983  0.96152475    -0.23200
C1358       C  0.24450817  0.93788344  0.96650158     0.19700
F1359       F  0.22533214  0.95098018  0.95663938    -0.13200
F1360       F  0.21483406  0.91316619  0.98721547    -0.15500
F1361       F  0.31240305  0.93784946  0.96863589    -0.15500
F1362       F  0.30290821  0.90040309  0.99982874    -0.13200
C1363       C  0.19573233  0.35350845  0.04848071     0.24900
C1364       C  0.18648197  0.33617660  0.03130674    -0.23300
C1365       C  0.19477404  0.33740209  0.00657491     0.19800
C1366       C  0.21330994  0.35413464  0.99954868     0.24800
C1367       C  0.22506721  0.36985391  0.01725358    -0.23200
C1368       C  0.21415486  0.37077413  0.04140300     0.19700
F1369       F  0.22023199  0.38867213  0.05804021    -0.13200
F1370       F  0.18643824  0.35417056  0.07199007    -0.15500
F1371       F  0.22150584  0.35313287  0.97565298    -0.15500
F1372       F  0.18598739  0.32124366  0.98927953    -0.13200
C1373       C  0.29176791  0.37199226  0.98853173     0.24900
C1374       C  0.26935168  0.36426373  0.00025745    -0.23300
C1375       C  0.26772324  0.33838874  0.00630241     0.19800
C1376       C  0.28530984  0.32130447  0.99784422     0.24800
C1377       C  0.30652858  0.32918870  0.98510757    -0.23200
C1378       C  0.30987270  0.35473565  0.98096594     0.19700
F1379       F  0.33073950  0.36306193  0.96942453    -0.13200
F1380       F  0.29628331  0.39637727  0.98411448    -0.15500
F1381       F  0.28246923  0.29698880  0.00404321    -0.15500
F1382       F  0.25053288  0.32916916  0.02232793    -0.13200
C1383       C  0.24612207  0.40102099  0.96263327     0.24900
C1384       C  0.23929646  0.40189325  0.98814611    -0.23300
C1385       C  0.22271643  0.42125599  0.99530979     0.19800
C1386       C  0.21701459  0.44090604  0.97914105     0.24800
C1387       C  0.22713232  0.44166572  0.95510091    -0.23200
C1388       C  0.24063525  0.42093886  0.94663386     0.19700
F1389       F  0.24879715  0.42002822  0.92270686    -0.13200
F1390       F  0.25783057  0.38108768  0.95268873    -0.15500
F1391       F  0.20336468  0.46022550  0.98787211    -0.15500
F1392       F  0.21400735  0.42259076  0.01900759    -0.13200
C1393       C  0.01678611  0.21855162  0.37395203     0.24900
C1394       C  0.00343300  0.23985353  0.36577193    -0.23300
C1395       C  0.99707412  0.24047143  0.33990400     0.19800
C1396       C  0.00670211  0.22315025  0.32312155     0.24800
C1397       C  0.02120718  0.20333616  0.33142384    -0.23200
C1398       C  0.02558722  0.20072427  0.35701284     0.19700
F1399       F  0.03845249  0.18082134  0.36565840    -0.13200
F1400       F  0.02181244  0.21504984  0.39844662    -0.15500
F1401       F  0.00031878  0.22480463  0.29869117    -0.15500
F1402       F  0.97990053  0.25632620  0.33050396    -0.13200
C1403       C  0.94965902  0.31065217  0.35730914     0.24900
C1404       C  0.96504601  0.32093972  0.33891955    -0.23300
C1405       C  0.99010840  0.31404698  0.33820436     0.19800
C1406       C  0.99926115  0.29586482  0.35427789     0.24800
C1407       C  0.98337335  0.28302074  0.37111950    -0.23200
C1408       C  0.95880164  0.29245837  0.37376235     0.19700
F1409       F  0.94377380  0.28538040  0.39275536    -0.13200
F1410       F  0.92593714  0.31880804  0.35986196    -0.15500
F1411       F  0.02347884  0.28934129  0.35180805    -0.15500
F1412       F  0.00569906  0.32424362  0.32108994    -0.13200
C1413       C  0.98027979  0.23781523  0.42689315     0.24900
C1414       C  0.97500727  0.24527148  0.40187489    -0.23300
C1415       C  0.95222149  0.23660203  0.39183267     0.19800
C1416       C  0.93387357  0.22600390  0.40720610     0.24800
C1417       C  0.93843481  0.22173359  0.43264037    -0.23200
C1418       C  0.96218384  0.22677379  0.44193870     0.19700
F1419       F  0.96785677  0.22195105  0.46610587    -0.13200
F1420       F  0.00319316  0.23997891  0.43714908    -0.15500
F1421       F  0.91148507  0.22009574  0.39720853    -0.15500
F1422       F  0.94701767  0.23968631  0.36729478    -0.13200
C1423       C  0.48834434  0.23725203  0.10511893     0.24900
C1424       C  0.48390256  0.25699096  0.12216747    -0.23300
C1425       C  0.46341027  0.27275454  0.11678653     0.19800
C1426       C  0.44904661  0.26935607  0.09527698     0.24800
C1427       C  0.45506943  0.25096739  0.07760390    -0.23200
C1428       C  0.47449982  0.23453526  0.08327144     0.19700
F1429       F  0.48140251  0.21656599  0.06699038    -0.13200
F1430       F  0.50723669  0.22102028  0.10890982    -0.15500
F1431       F  0.42948390  0.28480723  0.09163155    -0.15500
F1432       F  0.45807923  0.29301904  0.13073408    -0.13200
C1433       C  0.56254347  0.26112247  0.09816635     0.24900
C1434       C  0.55792760  0.28147716  0.08237936    -0.23300
C1435       C  0.53849989  0.29767404  0.08847215     0.19800
C1436       C  0.52305889  0.29277351  0.10886007     0.24800
C1437       C  0.52631306  0.27131641  0.12405437    -0.23200
C1438       C  0.54691702  0.25579915  0.11833235     0.19700
F1439       F  0.55108600  0.23402786  0.13033238    -0.13200
F1440       F  0.58186299  0.24556426  0.09364707    -0.15500
F1441       F  0.50381781  0.30853633  0.11289032    -0.15500
F1442       F  0.53311657  0.31739040  0.07365055    -0.13200
C1443       C  0.49954825  0.20311714  0.18203834     0.24900
C1444       C  0.51906552  0.20654631  0.19905095    -0.23300
C1445       C  0.53557985  0.22629512  0.19519931     0.19800
C1446       C  0.53158450  0.24333659  0.17591791     0.24800
C1447       C  0.51107679  0.24108199  0.15936645    -0.23200
C1448       C  0.49518858  0.22023759  0.16292859     0.19700
F1449       F  0.47398423  0.21706731  0.14969992    -0.13200
F1450       F  0.48383867  0.18349665  0.18440667    -0.15500
F1451       F  0.54761105  0.26268830  0.17396379    -0.15500
F1452       F  0.55471782  0.23027639  0.21114527    -0.13200
C1453       C  0.40355767  0.06541285  0.30738953     0.24900
C1454       C  0.42222553  0.07576118  0.29237601    -0.23300
C1455       C  0.42328987  0.06913838  0.26720462     0.19800
C1456       C  0.40762621  0.05086721  0.25770189     0.24800
C1457       C  0.39042150  0.03796777  0.27317947    -0.23200
C1458       C  0.38712167  0.04747809  0.29772048     0.19700
F1459       F  0.36762796  0.04076362  0.31221029    -0.13200
F1460       F  0.40077784  0.07320934  0.33127047    -0.15500
F1461       F  0.41085521  0.04435119  0.23351632    -0.15500
F1462       F  0.44046181  0.07957126  0.25185028    -0.13200
C1463       C  0.59186495  0.53545070  0.22727621     0.24900
C1464       C  0.60920880  0.54109571  0.24651432    -0.23300
C1465       C  0.60653914  0.56453037  0.25840173     0.19800
C1466       C  0.58736654  0.58072505  0.25181069     0.24800
C1467       C  0.56906996  0.57371983  0.23451119    -0.23200
C1468       C  0.57204285  0.55130286  0.22165400     0.19700
F1469       F  0.55477084  0.54367807  0.20492312    -0.13200
F1470       F  0.59330416  0.51364038  0.21469645    -0.15500
F1471       F  0.58607971  0.60302199  0.26354737    -0.15500
F1472       F  0.62050108  0.57139887  0.27820620    -0.13200
C1473       C  0.50669331  0.32123926  0.18579021     0.24900
C1474       C  0.48455933  0.31869795  0.19950828    -0.23300
C1475       C  0.46936647  0.29806789  0.19469312     0.19800
C1476       C  0.47572130  0.28089808  0.17609306     0.24800
C1477       C  0.49717240  0.28409819  0.16089970    -0.23200
C1478       C  0.51300022  0.30437240  0.16701890     0.19700
F1479       F  0.53563310  0.30743967  0.15632558    -0.13200
F1480       F  0.52325616  0.33941847  0.19139620    -0.15500
F1481       F  0.46038917  0.26119643  0.17260914    -0.15500
F1482       F  0.44800091  0.29461099  0.20769258    -0.13200
C1483       C  0.58169964  0.46268966  0.25927335     0.24900
C1484       C  0.56374558  0.47108102  0.27636467    -0.23300
C1485       C  0.56835081  0.49319319  0.28928844     0.19800
C1486       C  0.58966626  0.50728995  0.28420687     0.24800
C1487       C  0.60704477  0.50014062  0.26548052    -0.23200
C1488       C  0.60257626  0.47708917  0.25339038     0.19700
F1489       F  0.61677538  0.46893966  0.23422941    -0.13200
F1490       F  0.57878897  0.44058789  0.24747388    -0.15500
F1491       F  0.59264147  0.52892275  0.29682193    -0.15500
F1492       F  0.55142339  0.50216087  0.30573365    -0.13200
C1493       C  0.28184797  0.43850627  0.04426945     0.24900
C1494       C  0.28469813  0.42868277  0.06822907    -0.23300
C1495       C  0.27924532  0.40342339  0.07208043     0.19800
C1496       C  0.26952233  0.38878875  0.05269719     0.24800
C1497       C  0.26286245  0.39952524  0.02948597    -0.23200
C1498       C  0.27168144  0.42424017  0.02515643     0.19700
F1499       F  0.27159340  0.43498371  0.00227608    -0.13200
F1500       F  0.28790541  0.46250402  0.03931830    -0.15500
F1501       F  0.26543521  0.36432008  0.05719207    -0.15500
F1502       F  0.28315705  0.39290333  0.09474136    -0.13200
C1503       C  0.14537057  0.49667465  0.21981262     0.24900
C1504       C  0.14196286  0.51147813  0.24149269    -0.23300
C1505       C  0.16010858  0.53025882  0.24591138     0.19800
C1506       C  0.18081870  0.53327648  0.23039931     0.24800
C1507       C  0.18416022  0.51803997  0.20950506    -0.23200
C1508       C  0.16564794  0.50048318  0.20389757     0.19700
F1509       F  0.16739877  0.48623288  0.18312329    -0.13200
F1510       F  0.13071913  0.47690952  0.21454545    -0.15500
F1511       F  0.19835883  0.55019321  0.23688149    -0.15500
F1512       F  0.15836979  0.54523677  0.26616205    -0.13200
C1513       C  0.06618949  0.47365449  0.23100160     0.24900
C1514       C  0.06126086  0.45327222  0.24651744    -0.23300
C1515       C  0.07837091  0.44770710  0.26552952     0.19800
C1516       C  0.09880658  0.46313586  0.27026301     0.24800
C1517       C  0.10354169  0.48455087  0.25540727    -0.23200
C1518       C  0.08683270  0.48894928  0.23530137     0.19700
F1519       F  0.08994177  0.50893137  0.22016081    -0.13200
F1520       F  0.05011973  0.47993301  0.21257870    -0.15500
F1521       F  0.11224040  0.45774503  0.29090096    -0.15500
F1522       F  0.07499018  0.42751564  0.28034998    -0.13200
C1523       C  0.06815536  0.54275955  0.29172334     0.24900
C1524       C  0.06626788  0.56368502  0.27631092    -0.23300
C1525       C  0.08438127  0.56726805  0.25776710     0.19800
C1526       C  0.10309497  0.54967743  0.25363765     0.24800
C1527       C  0.10503811  0.52795782  0.26872525    -0.23200
C1528       C  0.08694746  0.52517668  0.28792446     0.19700
F1529       F  0.08699744  0.50476747  0.30280218    -0.13200
F1530       F  0.05077974  0.53831106  0.30951960    -0.15500
F1531       F  0.11749325  0.55341111  0.23324928    -0.15500
F1532       F  0.08358228  0.58761933  0.24279558    -0.13200
C1533       C  0.24368731  0.62164121  0.55375477     0.24900
C1534       C  0.23683637  0.61991209  0.52829020    -0.23300
C1535       C  0.22061441  0.60001113  0.52175334     0.19800
C1536       C  0.21485712  0.58099312  0.53856009     0.24800
C1537       C  0.22478571  0.58110772  0.56261578    -0.23200
C1538       C  0.23839155  0.60207800  0.57038307     0.19700
F1539       F  0.24679864  0.60355478  0.59418101    -0.13200
F1540       F  0.25525497  0.64197930  0.56300894    -0.15500
F1541       F  0.20137535  0.56129511  0.53041396    -0.15500
F1542       F  0.21207270  0.59761615  0.49810601    -0.13200
C1543       C  0.16410810  0.50902983  0.32231060     0.24900
C1544       C  0.18215326  0.49094346  0.31697910    -0.23300
C1545       C  0.17793594  0.47483290  0.29692841     0.19800
C1546       C  0.15735925  0.47817579  0.28128337     0.24800
C1547       C  0.14024861  0.49807140  0.28483133    -0.23200
C1548       C  0.14384552  0.51294446  0.30645929     0.19700
F1549       F  0.12969294  0.53308188  0.31156533    -0.13200
F1550       F  0.16653671  0.52393709  0.34255157    -0.15500
F1551       F  0.15513371  0.46280411  0.26138111    -0.15500
F1552       F  0.19470809  0.45692581  0.29116551    -0.13200
C1553       C  0.27989548  0.58070315  0.47539797     0.24900
C1554       C  0.28204735  0.58858089  0.45064115    -0.23300
C1555       C  0.27665669  0.61352779  0.44500166     0.19800
C1556       C  0.26749642  0.62966777  0.46345402     0.24800
C1557       C  0.26117972  0.62066917  0.48748818    -0.23200
C1558       C  0.27043199  0.59653928  0.49362217     0.19700
F1559       F  0.27119628  0.58789069  0.51736833    -0.13200
F1560       F  0.28583255  0.55709721  0.48203746    -0.15500
F1561       F  0.26321585  0.65369710  0.45715627    -0.15500
F1562       F  0.27994495  0.62224468  0.42148161    -0.13200
C1563       C  0.05721949  0.27248579  0.41858593     0.24900
C1564       C  0.04898546  0.28523325  0.43988151    -0.23300
C1565       C  0.02463352  0.29433488  0.44029375     0.19800
C1566       C  0.00794533  0.28794458  0.42132628     0.24800
C1567       C  0.01495990  0.27145743  0.40180520    -0.23200
C1568       C  0.04069104  0.26628710  0.39942028     0.19700
F1569       F  0.05030365  0.25543967  0.37878165    -0.13200
F1570       F  0.08136563  0.26547309  0.41657514    -0.15500
F1571       F  0.98405441  0.29560650  0.42368602    -0.15500
F1572       F  0.01618629  0.30731299  0.46024156    -0.13200
C1573       C  0.20863436  0.19151674  0.53824421     0.24900
C1574       C  0.18387517  0.18374378  0.53827991    -0.23300
C1575       C  0.17842893  0.15937100  0.53059383     0.19800
C1576       C  0.19738198  0.14351566  0.52205154     0.24800
C1577       C  0.22185444  0.15251387  0.51816218    -0.23200
C1578       C  0.22725352  0.17641090  0.52848285     0.19700
F1579       F  0.25065389  0.18567586  0.52987871    -0.13200
F1580       F  0.21494679  0.21447506  0.54656532    -0.15500
F1581       F  0.19138080  0.11968960  0.51643378    -0.15500
F1582       F  0.15467795  0.15089228  0.53127497    -0.13200
C1583       C  0.20685076  0.10757551  0.44862102     0.24900
C1584       C  0.22368515  0.08905258  0.44129776    -0.23300
C1585       C  0.24716861  0.08845961  0.45249458     0.19800
C1586       C  0.25313561  0.10466691  0.47174366     0.24800
C1587       C  0.23547631  0.12171082  0.48150745    -0.23200
C1588       C  0.21290843  0.12429710  0.46791899     0.19700
F1589       F  0.19704220  0.14335932  0.47215202    -0.13200
F1590       F  0.18479475  0.10993532  0.43661752    -0.15500
F1591       F  0.27579168  0.10193479  0.48240729    -0.15500
F1592       F  0.26419684  0.07110103  0.44577011    -0.13200
C1593       C  0.26723624  0.10663384  0.56831271     0.24900
C1594       C  0.26289198  0.08122143  0.56483712    -0.23300
C1595       C  0.24990134  0.07357184  0.54371978     0.19800
C1596       C  0.24210750  0.09079107  0.52583985     0.24800
C1597       C  0.24921090  0.11638103  0.52715780    -0.23200
C1598       C  0.26060922  0.12395271  0.54983596     0.19700
F1599       F  0.26595608  0.14812735  0.55417644    -0.13200
F1600       F  0.27775346  0.11477481  0.58978449    -0.15500
F1601       F  0.22620744  0.08208191  0.50831091    -0.15500
F1602       F  0.24347765  0.04931223  0.54103541    -0.13200
C1603       C  0.53625856  0.27559565  0.60832965     0.24900
C1604       C  0.52676930  0.25582759  0.62312672    -0.23300
C1605       C  0.53525258  0.23141845  0.61706846     0.19800
C1606       C  0.55194978  0.22735327  0.59745218     0.24800
C1607       C  0.56075787  0.24711536  0.58302414    -0.23200
C1608       C  0.55324866  0.27133248  0.58902081     0.19700
F1609       F  0.56138899  0.29094405  0.57530687    -0.13200
F1610       F  0.52858166  0.29929293  0.61208694    -0.15500
F1611       F  0.55947528  0.20380718  0.59245934    -0.15500
F1612       F  0.52641875  0.21084155  0.62867403    -0.13200
C1613       C  0.30739827  0.16782964  0.49727019     0.24900
C1614       C  0.30080989  0.18939570  0.48380384    -0.23300
C1615       C  0.27647261  0.19107551  0.47461481     0.19800
C1616       C  0.25882032  0.17284370  0.48046808     0.24800
C1617       C  0.26438246  0.15285367  0.49696122    -0.23200
C1618       C  0.28961102  0.14991705  0.50382080     0.19700
F1619       F  0.29773050  0.12956148  0.51625463    -0.13200
F1620       F  0.33131378  0.16374196  0.50409351    -0.15500
F1621       F  0.23541639  0.17608148  0.47168572    -0.15500
F1622       F  0.26907152  0.21108211  0.46114401    -0.13200
C1623       C  0.45969144  0.24976164  0.58481314     0.24900
C1624       C  0.45141953  0.27371172  0.57855879    -0.23300
C1625       C  0.45870295  0.29361156  0.59370758     0.19800
C1626       C  0.47424861  0.28980272  0.61442884     0.24800
C1627       C  0.48269901  0.26554302  0.62115723    -0.23200
C1628       C  0.47493054  0.24574713  0.60553283     0.19700
F1629       F  0.48260194  0.22215742  0.60987679    -0.13200
F1630       F  0.45397713  0.23006095  0.57011720    -0.15500
F1631       F  0.48188250  0.31041800  0.62672051    -0.15500
F1632       F  0.45076900  0.31697696  0.58847507    -0.13200
C1633       C  0.46226458  0.74176299  0.35053867     0.24900
C1634       C  0.47917451  0.73563561  0.36996371    -0.23300
C1635       C  0.48346475  0.70999677  0.37427686     0.19800
C1636       C  0.47482045  0.69210057  0.35744240     0.24800
C1637       C  0.46137501  0.69900613  0.33601609    -0.23200
C1638       C  0.45414578  0.72389668  0.33346794     0.19700
F1639       F  0.44091084  0.73153483  0.31337316    -0.13200
F1640       F  0.45559816  0.76572178  0.34640023    -0.15500
F1641       F  0.47997157  0.66783588  0.36205841    -0.15500
F1642       F  0.49552193  0.70170295  0.39481933    -0.13200
C1643       C  0.51276181  0.79946251  0.37321539     0.24900
C1644       C  0.50507354  0.77535842  0.36588894    -0.23300
C1645       C  0.51227725  0.76784189  0.34135402     0.19800
C1646       C  0.52172446  0.78487512  0.32410354     0.24800
C1647       C  0.52492595  0.80979112  0.33059216    -0.23200
C1648       C  0.52122269  0.81678325  0.35552409     0.19700
F1649       F  0.52548588  0.84057307  0.36271966    -0.13200
F1650       F  0.51053656  0.80696928  0.39721917    -0.15500
F1651       F  0.52650289  0.77708077  0.30052809    -0.15500
F1652       F  0.51081166  0.74391689  0.33357458    -0.13200
C1653       C  0.44196711  0.76337951  0.43605784     0.24900
C1654       C  0.43491119  0.78836228  0.43485835    -0.23300
C1655       C  0.44301448  0.80277119  0.41463458     0.19800
C1656       C  0.45928510  0.79274841  0.39669711     0.24800
C1657       C  0.46929683  0.76846349  0.39971096    -0.23200
C1658       C  0.45839970  0.75345670  0.41864735     0.19700
F1659       F  0.46524390  0.72941793  0.42174096    -0.13200
F1660       F  0.43343913  0.74855292  0.45471092    -0.15500
F1661       F  0.46394587  0.80659105  0.37611403    -0.15500
F1662       F  0.43449825  0.82632902  0.41178348    -0.13200
C1663       C  0.27805152  0.70269098  0.51320890     0.24900
C1664       C  0.29913281  0.69766379  0.52736660    -0.23300
C1665       C  0.30436534  0.67289687  0.53366783     0.19800
C1666       C  0.28789757  0.65360368  0.52691486     0.24800
C1667       C  0.26528939  0.65861866  0.51414452    -0.23200
C1668       C  0.26215468  0.68371256  0.50574860     0.19700
F1669       F  0.24521666  0.69033205  0.48828342    -0.13200
F1670       F  0.27358309  0.72619230  0.50506551    -0.15500
F1671       F  0.29432529  0.62995289  0.53274090    -0.15500
F1672       F  0.32593953  0.66724436  0.54544098    -0.13200
C1673       C  0.55140911  0.72657999  0.41258731     0.24900
C1674       C  0.55037703  0.73383791  0.43760495    -0.23300
C1675       C  0.53191573  0.75033920  0.44515979     0.19800
C1676       C  0.51405866  0.75878905  0.42838343     0.24800
C1677       C  0.51281373  0.74946888  0.40347134    -0.23200
C1678       C  0.53316257  0.73453598  0.39564510     0.19700
F1679       F  0.53526278  0.72702285  0.37166145    -0.13200
F1680       F  0.57028859  0.71197008  0.40446432    -0.15500
F1681       F  0.49932514  0.77747464  0.43665722    -0.15500
F1682       F  0.53196407  0.75946129  0.46875249    -0.13200
C1683       C  0.81076440  0.01418171  0.29229503     0.24900
C1684       C  0.81703527  0.02986350  0.31197910    -0.23300
C1685       C  0.84185794  0.03726519  0.31466541     0.19800
C1686       C  0.85999241  0.02971030  0.29729126     0.24800
C1687       C  0.85353019  0.01567194  0.27580725    -0.23200
C1688       C  0.82855983  0.00655257  0.27506613     0.19700
F1689       F  0.82110224  0.98862054  0.25898747    -0.13200
F1690       F  0.78728340  0.00508075  0.29039348    -0.15500
F1691       F  0.88387059  0.03648063  0.30151396    -0.15500
F1692       F  0.84874261  0.05107211  0.33464355    -0.13200
C1693       C  0.72957398  0.84989965  0.53986295     0.24900
C1694       C  0.72348574  0.86901333  0.52255194    -0.23300
C1695       C  0.69801390  0.87156147  0.51635449     0.19800
C1696       C  0.68097790  0.85279507  0.52242065     0.24800
C1697       C  0.68841493  0.83168676  0.53597977    -0.23200
C1698       C  0.71242326  0.83129537  0.54607652     0.19700
F1699       F  0.72015712  0.81180358  0.56012821    -0.13200
F1700       F  0.75307240  0.84758121  0.54867844    -0.15500
F1701       F  0.65709468  0.85516892  0.51466692    -0.15500
F1702       F  0.68909815  0.89206539  0.50473935    -0.13200
C1703       C  0.73865640  0.91773515  0.54538876     0.24900
C1704       C  0.75473497  0.89985581  0.53442639    -0.23300
C1705       C  0.77883228  0.89752752  0.54504237     0.19800
C1706       C  0.78771412  0.91535830  0.56196436     0.24800
C1707       C  0.77242613  0.93486329  0.56987076    -0.23200
C1708       C  0.74750284  0.93509220  0.56250379     0.19700
F1709       F  0.73182066  0.95286309  0.57116066    -0.13200
F1710       F  0.71475905  0.92003237  0.53772987    -0.15500
F1711       F  0.81112108  0.91325425  0.57110485    -0.15500
F1712       F  0.79369417  0.87784242  0.54006164    -0.13200
C1713       C  0.74510088  0.92923841  0.48988869     0.24900
C1714       C  0.73708135  0.90390364  0.49023300    -0.23300
C1715       C  0.72368703  0.89572258  0.46893952     0.19800
C1716       C  0.71547463  0.91261894  0.45071589     0.24800
C1717       C  0.72113615  0.93796138  0.45268750    -0.23200
C1718       C  0.73660712  0.94587958  0.47191400     0.19700
F1719       F  0.74483547  0.96974259  0.47246200    -0.13200
F1720       F  0.76267399  0.93815194  0.50561492    -0.15500
F1721       F  0.70206753  0.90418059  0.43105970    -0.15500
F1722       F  0.71790735  0.87138536  0.46595939    -0.13200
C1723       C  0.80665482  0.86149595  0.48166134     0.24900
C1724       C  0.80190647  0.83616925  0.47802831    -0.23300
C1725       C  0.77781914  0.82724062  0.48165562     0.19800
C1726       C  0.75926620  0.84277397  0.49104162     0.24800
C1727       C  0.76455700  0.86782973  0.49816863    -0.23200
C1728       C  0.78799320  0.87732663  0.49057955     0.19700
F1729       F  0.79362295  0.90170517  0.49339350    -0.13200
F1730       F  0.82968269  0.87080761  0.47719891    -0.15500
F1731       F  0.73610962  0.83289918  0.49225590    -0.15500
F1732       F  0.77243729  0.80296362  0.47736012    -0.13200
C1733       C  0.95192844  0.77321972  0.58673628     0.24900
C1734       C  0.94262430  0.74911115  0.58324590    -0.23300
C1735       C  0.95073064  0.73024896  0.59951390     0.19800
C1736       C  0.96926910  0.73502099  0.61753344     0.24800
C1737       C  0.98128818  0.75854663  0.61848972    -0.23200
C1738       C  0.97029625  0.77795984  0.60430194     0.19700
F1739       F  0.97950761  0.80140995  0.60510125    -0.13200
F1740       F  0.94494938  0.79220175  0.57160994    -0.15500
F1741       F  0.97467341  0.71671929  0.63399840    -0.15500
F1742       F  0.94051339  0.70723346  0.59815725    -0.13200
C1743       C  0.19460980  0.66426027  0.46352019     0.24900
C1744       C  0.18455141  0.68234947  0.47936110    -0.23300
C1745       C  0.19096248  0.68181399  0.50471380     0.19800
C1746       C  0.20905679  0.66546903  0.51346030     0.24800
C1747       C  0.22197980  0.64935715  0.49698842    -0.23200
C1748       C  0.21223710  0.64712569  0.47245883     0.19700
F1749       F  0.21879106  0.62822296  0.45718312    -0.13200
F1750       F  0.18701388  0.66287170  0.43945900    -0.15500
F1751       F  0.21595121  0.66748425  0.53770348    -0.15500
F1752       F  0.18104196  0.69843449  0.52092425    -0.13200
C1753       C  0.04889201  0.78454568  0.61716352     0.24900
C1754       C  0.02578411  0.77318098  0.61112104    -0.23300
C1755       C  0.02239255  0.76711909  0.58535251     0.19800
C1756       C  0.03880396  0.77522064  0.56700384     0.24800
C1757       C  0.06083378  0.78733610  0.57319489    -0.23200
C1758       C  0.06598476  0.79167713  0.59845398     0.19700
F1759       F  0.08810835  0.80176946  0.60511906    -0.13200
F1760       F  0.05533390  0.78846762  0.64123357    -0.15500
F1761       F  0.03402857  0.76926095  0.54287212    -0.15500
F1762       F  0.00455547  0.75124300  0.57731358    -0.13200
C1763       C  0.15817872  0.02595462  0.83279570     0.24900
C1764       C  0.17741535  0.04175980  0.82468695    -0.23300
C1765       C  0.17573323  0.05229904  0.80087491     0.19800
C1766       C  0.15718505  0.04446851  0.78436446     0.24800
C1767       C  0.14046903  0.02499691  0.79089044    -0.23200
C1768       C  0.13971111  0.01793813  0.81633828     0.19700
F1769       F  0.12145707  0.00329838  0.82573358    -0.13200
F1770       F  0.15767627  0.01749268  0.85664462    -0.15500
F1771       F  0.15769077  0.05363143  0.76079497    -0.15500
F1772       F  0.19347000  0.06820948  0.79254946    -0.13200
C1773       C  0.18564618  0.98806590  0.73684082     0.24900
C1774       C  0.17736947  0.98328042  0.71274578    -0.23300
C1775       C  0.15191527  0.98546030  0.70752574     0.19800
C1776       C  0.13520177  0.99372944  0.72589772     0.24800
C1777       C  0.14377903  0.00199221  0.74946438    -0.23200
C1778       C  0.16933510  0.99681489  0.75498430     0.19700
F1779       F  0.17909696  0.99900752  0.77816367    -0.13200
F1780       F  0.21001699  0.98521681  0.74275093    -0.15500
F1781       F  0.11065410  0.99424854  0.72026430    -0.15500
F1782       F  0.14323626  0.97959831  0.68453566    -0.13200
C1783       C  0.99981365  0.82501481  0.67221184     0.24900
C1784       C  0.98615083  0.81590332  0.69266931    -0.23300
C1785       C  0.97632729  0.79187858  0.69134569     0.19800
C1786       C  0.98190414  0.77653234  0.67106309     0.24800
C1787       C  0.99795672  0.78453047  0.65143877    -0.23200
C1788       C  0.00527687  0.80982378  0.65167348     0.19700
F1789       F  0.01728804  0.82039598  0.63217201    -0.13200
F1790       F  0.00809794  0.84884374  0.67214962    -0.15500
F1791       F  0.97324718  0.75284124  0.67172010    -0.15500
F1792       F  0.96293633  0.78242122  0.71060896    -0.13200
C1793       C  0.10729642  0.94805601  0.79872847     0.24900
C1794       C  0.08165235  0.94716094  0.79466535    -0.23300
C1795       C  0.07051561  0.96557413  0.78020566     0.19800
C1796       C  0.08437778  0.98541499  0.77099573     0.24800
C1797       C  0.10983929  0.98872436  0.77771320    -0.23200
C1798       C  0.12130732  0.96836550  0.79016516     0.19700
F1799       F  0.14600990  0.96829305  0.79490731    -0.13200
F1800       F  0.11880738  0.92924928  0.81101357    -0.15500
F1801       F  0.07268671  0.00024442  0.75425707    -0.15500
F1802       F  0.04614880  0.96368737  0.77389447    -0.13200
C1803       C  0.06980581  0.05748227  0.77335478     0.24900
C1804       C  0.06764424  0.06756305  0.74929380    -0.23300
C1805       C  0.08624662  0.06177719  0.73176232     0.19800
C1806       C  0.10601531  0.04553984  0.73794319     0.24800
C1807       C  0.10691260  0.03358224  0.76159743    -0.23200
C1808       C  0.08910020  0.04143133  0.77947993     0.19700
F1809       F  0.08896594  0.03182086  0.80285235    -0.13200
F1810       F  0.05233176  0.06191686  0.79105511    -0.15500
F1811       F  0.12443629  0.04261647  0.72099062    -0.15500
F1812       F  0.08572334  0.07240721  0.70882825    -0.13200
C1813       C  0.94965491  0.21072727  0.85467702     0.24900
C1814       C  0.96645626  0.20038529  0.83757202    -0.23300
C1815       C  0.99161137  0.20685131  0.83934977     0.19800
C1816       C  0.99955791  0.22469360  0.85626352     0.24800
C1817       C  0.98253200  0.23756745  0.87182405    -0.23200
C1818       C  0.95771092  0.22840713  0.87230354     0.19700
F1819       F  0.94134405  0.23537817  0.89016205    -0.13200
F1820       F  0.92559956  0.20315093  0.85484551    -0.15500
F1821       F  0.02396619  0.23087462  0.85572072    -0.15500
F1822       F  0.00867769  0.19673966  0.82371244    -0.13200
C1823       C  0.66651581  0.03535293  0.71566372     0.24900
C1824       C  0.68428692  0.01741765  0.70892662    -0.23300
C1825       C  0.68098662  0.99294192  0.71751540     0.19800
C1826       C  0.66156991  0.98685912  0.73335263     0.24800
C1827       C  0.64506616  0.00517627  0.74266789    -0.23200
C1828       C  0.64663771  0.02919035  0.73169533     0.19700
F1829       F  0.62885859  0.04658028  0.73541997    -0.13200
F1830       F  0.66809726  0.05877992  0.70641800    -0.15500
F1831       F  0.66067014  0.96308008  0.74174414    -0.15500
F1832       F  0.69763180  0.97474479  0.71232621    -0.13200
C1833       C  0.61094906  0.95132908  0.75939765     0.24900
C1834       C  0.61136279  0.97668122  0.75225742    -0.23300
C1835       C  0.59495510  0.98384549  0.73269491     0.19800
C1836       C  0.57592273  0.96807280  0.72461261     0.24800
C1837       C  0.57294982  0.94461503  0.73550521    -0.23200
C1838       C  0.59161601  0.93579988  0.75157604     0.19700
F1839       F  0.59076239  0.91214439  0.76036682    -0.13200
F1840       F  0.62896051  0.94111037  0.77372881    -0.15500
F1841       F  0.55908074  0.97678242  0.70795495    -0.15500
F1842       F  0.59563693  0.00722704  0.72321245    -0.13200
C1843       C  0.51505680  0.21481270  0.69485951     0.24900
C1844       C  0.49130599  0.20556742  0.70049416    -0.23300
C1845       C  0.47130778  0.21300600  0.68542105     0.19800
C1846       C  0.47498010  0.22919739  0.66506360     0.24800
C1847       C  0.49901969  0.23869677  0.65921711    -0.23200
C1848       C  0.51881425  0.23096634  0.67489602     0.19700
F1849       F  0.54228738  0.23936158  0.67114805    -0.13200
F1850       F  0.53486661  0.20925410  0.70947209    -0.15500
F1851       F  0.45451495  0.23638639  0.65225998    -0.15500
F1852       F  0.44801852  0.20468405  0.69040594    -0.13200
C1853       C  0.60348239  0.05999232  0.79198703     0.24900
C1854       C  0.57785543  0.05561062  0.79458042    -0.23300
C1855       C  0.56881317  0.03175245  0.79006770     0.19800
C1856       C  0.58448676  0.01305297  0.78136666     0.24800
C1857       C  0.61015027  0.01769576  0.77597087    -0.23200
C1858       C  0.61957059  0.04094190  0.78404773     0.19700
F1859       F  0.64432382  0.04567266  0.78336074    -0.13200
F1860       F  0.61297796  0.08277103  0.79716304    -0.15500
F1861       F  0.57405230  0.99018902  0.77948617    -0.15500
F1862       F  0.54430752  0.02657537  0.79320429    -0.13200
C1863       C  0.27904188  0.85779243  0.04505523     0.24900
C1864       C  0.27306103  0.86609460  0.02053590    -0.23300
C1865       C  0.28394068  0.85276274  0.00049112     0.19800
C1866       C  0.30001333  0.83289388  0.00450718     0.24800
C1867       C  0.30555406  0.82473441  0.02870747    -0.23200
C1868       C  0.29479831  0.83728273  0.04891975     0.19700
F1869       F  0.29942284  0.82963178  0.07257576    -0.13200
F1870       F  0.26884852  0.86835475  0.06556971    -0.15500
F1871       F  0.30907146  0.82073701  0.98430166    -0.15500
F1872       F  0.27866461  0.85862390  0.97648924    -0.13200
C1873       C  0.48182330  0.79788479  0.87326286     0.24900
C1874       C  0.49719915  0.77791439  0.86541418    -0.23300
C1875       C  0.50555781  0.77899836  0.84013026     0.19800
C1876       C  0.49509084  0.79551838  0.82298222     0.24800
C1877       C  0.47761552  0.81310089  0.83055236    -0.23200
C1878       C  0.47192405  0.81493278  0.85599491     0.19700
F1879       F  0.45672099  0.83331372  0.86416589    -0.13200
F1880       F  0.47539047  0.80049984  0.89751255    -0.15500
F1881       F  0.50309005  0.79516398  0.79896917    -0.15500
F1882       F  0.52472872  0.76495575  0.83171987    -0.13200
C1883       C  0.49127690  0.72743696  0.91913094     0.24900
C1884       C  0.48444787  0.74422005  0.89972053    -0.23300
C1885       C  0.45865879  0.74857733  0.89653952     0.19800
C1886       C  0.44153144  0.74044946  0.91445134     0.24800
C1887       C  0.44935634  0.72766530  0.93591690    -0.23200
C1888       C  0.47415630  0.71997580  0.93735466     0.19700
F1889       F  0.48242676  0.70705363  0.95743569    -0.13200
F1890       F  0.51530326  0.72045898  0.92217256    -0.15500
F1891       F  0.41707197  0.74549330  0.91094986    -0.15500
F1892       F  0.44944451  0.76030231  0.87620588    -0.13200
C1893       C  0.54912699  0.77551635  0.89496875     0.24900
C1894       C  0.52456584  0.76940293  0.90231449    -0.23300
C1895       C  0.51769021  0.77670549  0.92702440     0.19800
C1896       C  0.53548408  0.78399220  0.94449094     0.24800
C1897       C  0.56052784  0.78544628  0.93793569    -0.23200
C1898       C  0.56716235  0.78203449  0.91284256     0.19700
F1899       F  0.59125887  0.78439770  0.90575480    -0.13200
F1900       F  0.55627465  0.77337826  0.87083168    -0.15500
F1901       F  0.52829314  0.78817148  0.96838887    -0.15500
F1902       F  0.49374241  0.77680914  0.93493016    -0.13200
C1903       C  0.79021443  0.15973794  0.99450283     0.24900
C1904       C  0.76937899  0.15453401  0.00998805    -0.23300
C1905       C  0.76577003  0.17051034  0.03079906     0.19800
C1906       C  0.78177843  0.19044147  0.03571591     0.24800
C1907       C  0.80165967  0.19579538  0.01969344    -0.23200
C1908       C  0.80616183  0.17961658  0.99962565     0.19700
F1909       F  0.82581709  0.18335905  0.98419338    -0.13200
F1910       F  0.79447835  0.14732306  0.97296200    -0.15500
F1911       F  0.77674568  0.20537733  0.05542424    -0.15500
F1912       F  0.74618606  0.16718924  0.04637310    -0.13200
C1913       C  0.72992321  0.16969619  0.97395142     0.24900
C1914       C  0.72677885  0.15385176  0.99499448    -0.23300
C1915       C  0.70602777  0.15891372  0.01058251     0.19800
C1916       C  0.68941706  0.17818160  0.00509895     0.24800
C1917       C  0.69250748  0.19332226  0.98385671    -0.23200
C1918       C  0.71292963  0.18862733  0.96829091     0.19700
F1919       F  0.71666368  0.20240471  0.94742293    -0.13200
F1920       F  0.74975013  0.16692804  0.95858824    -0.15500
F1921       F  0.67121876  0.18294657  0.02192766    -0.15500
F1922       F  0.70247941  0.14696037  0.03255442    -0.13200
C1923       C  0.64924785  0.96694811  0.82758229     0.24900
C1924       C  0.67513961  0.96971380  0.82648718    -0.23300
C1925       C  0.68541744  0.98381419  0.80724731     0.19800
C1926       C  0.67044178  0.99401986  0.78872786     0.24800
C1927       C  0.64447080  0.98848544  0.78726390    -0.23200
C1928       C  0.63406962  0.97634729  0.80839571     0.19700
F1929       F  0.60920891  0.97279797  0.81024651    -0.13200
F1930       F  0.63864238  0.95493747  0.84714521    -0.15500
F1931       F  0.68175082  0.01063169  0.77343063    -0.15500
F1932       F  0.71011318  0.98907962  0.80716887    -0.13200
C1933       C  0.74730875  0.09156778  0.94482398     0.24900
C1934       C  0.76677347  0.07516711  0.95061540    -0.23300
C1935       C  0.78227323  0.08089194  0.97072756     0.19800
C1936       C  0.77720689  0.10138297  0.98594447     0.24800
C1937       C  0.75638093  0.11714973  0.98162518    -0.23200
C1938       C  0.74173428  0.11179985  0.96023460     0.19700
F1939       F  0.72054032  0.12429610  0.95497111    -0.13200
F1940       F  0.73280297  0.08746194  0.92455237    -0.15500
F1941       F  0.79227670  0.10513053  0.00582768    -0.15500
F1942       F  0.80136359  0.06563197  0.97691638    -0.13200
C1943       C  0.75615487  0.11256181  0.04529415     0.24900
C1944       C  0.74099479  0.11719318  0.02410127    -0.23300
C1945       C  0.72067573  0.10063252  0.02035050     0.19800
C1946       C  0.71651283  0.08014440  0.03604761     0.24800
C1947       C  0.73241059  0.07528348  0.05616619    -0.23200
C1948       C  0.75147613  0.09246000  0.06118781     0.19700
F1949       F  0.76647237  0.08947234  0.08128746    -0.13200
F1950       F  0.77713233  0.12568094  0.04993207    -0.15500
F1951       F  0.69780666  0.06419760  0.03043761    -0.15500
F1952       F  0.70532158  0.10356999  0.00053062    -0.13200
C1953       C  0.84456671  0.96607788  0.20317152     0.24900
C1954       C  0.82628151  0.98205340  0.19373767    -0.23300
C1955       C  0.82587626  0.00675710  0.20177045     0.19800
C1956       C  0.84221231  0.01498661  0.22014959     0.24800
C1957       C  0.85947530  0.99861279  0.23171516    -0.23200
C1958       C  0.86166475  0.97444639  0.22116141     0.19700
F1959       F  0.88069086  0.95906468  0.22695106    -0.13200
F1960       F  0.84630192  0.94247832  0.19446189    -0.15500
F1961       F  0.83974063  0.03879223  0.22804488    -0.15500
F1962       F  0.80873437  0.02284166  0.19258375    -0.13200
C1963       C  0.78873523  0.33185667  0.53509881     0.24900
C1964       C  0.80847127  0.32455292  0.51974298    -0.23300
C1965       C  0.81624026  0.34077802  0.50076960     0.19800
C1966       C  0.80326062  0.36267840  0.49560144     0.24800
C1967       C  0.78192729  0.36958214  0.50973319    -0.23200
C1968       C  0.77577014  0.35395205  0.53030831     0.19700
F1969       F  0.75570809  0.35905994  0.54475672    -0.13200
F1970       F  0.78051813  0.31659783  0.55350805    -0.15500
F1971       F  0.81043584  0.37501780  0.47479514    -0.15500
F1972       F  0.83595212  0.33488409  0.48611741    -0.13200
C1973       C  0.71757272  0.36907221  0.50650053     0.24900
C1974       C  0.74018015  0.37086365  0.49297619    -0.23300
C1975       C  0.74446069  0.35247361  0.47436211     0.19800
C1976       C  0.72802897  0.33267104  0.47069423     0.24800
C1977       C  0.70629480  0.33072494  0.48491834    -0.23200
C1978       C  0.70070677  0.34989954  0.50184083     0.19700
F1979       F  0.67899441  0.34988320  0.51472317    -0.13200
F1980       F  0.71209546  0.38427844  0.52582787    -0.15500
F1981       F  0.73431367  0.31464984  0.45419967    -0.15500
F1982       F  0.76535030  0.35304062  0.46020550    -0.13200
C1983       C  0.66883231  0.51961984  0.31544938     0.24900
C1984       C  0.68700802  0.53715861  0.30879960    -0.23300
C1985       C  0.68343413  0.55131793  0.28721639     0.19800
C1986       C  0.66308391  0.54682584  0.27164234     0.24800
C1987       C  0.64504533  0.52823397  0.27728674    -0.23200
C1988       C  0.64835992  0.51499388  0.30004383     0.19700
F1989       F  0.63358945  0.49570796  0.30674687    -0.13200
F1990       F  0.67132470  0.50603755  0.33664577    -0.15500
F1991       F  0.66165476  0.56010018  0.25017181    -0.15500
F1992       F  0.70068257  0.56829684  0.28004228    -0.13200
C1993       C  0.79907973  0.43814012  0.46314159     0.24900
C1994       C  0.78446085  0.44200400  0.44183853    -0.23300
C1995       C  0.76344102  0.42680793  0.43838631     0.19800
C1996       C  0.75690311  0.40866079  0.45581275     0.24800
C1997       C  0.77108775  0.40499194  0.47784633    -0.23200
C1998       C  0.79217902  0.42055326  0.48108979     0.19700
F1999       F  0.80624314  0.41882423  0.50200382    -0.13200
F2000       F  0.82008902  0.45156030  0.46690515    -0.15500
F2001       F  0.73501844  0.39685848  0.45176687    -0.15500
F2002       F  0.74765756  0.43058416  0.41907244    -0.13200
C2003       C  0.76339625  0.43495200  0.55650916     0.24900
C2004       C  0.74587315  0.45293597  0.54907760    -0.23300
C2005       C  0.73181434  0.44823439  0.52761992     0.19800
C2006       C  0.73589276  0.42678548  0.51343335     0.24800
C2007       C  0.75459040  0.40913480  0.51980179    -0.23200
C2008       C  0.76822449  0.41391476  0.54193061     0.19700
F2009       F  0.78765219  0.39960019  0.54905977    -0.13200
F2010       F  0.77640508  0.43768512  0.57796932    -0.15500
F2011       F  0.72174255  0.42366252  0.49277831    -0.15500
F2012       F  0.71482054  0.46498106  0.51946111    -0.13200
C2013       C  0.35675237  0.48028480  0.72520169     0.24900
C2014       C  0.35657329  0.50519788  0.73407909    -0.23300
C2015       C  0.34028761  0.52199397  0.72174094     0.19800
C2016       C  0.32285735  0.51371333  0.70441141     0.24800
C2017       C  0.32106890  0.48847273  0.69834398    -0.23200
C2018       C  0.33852605  0.47192619  0.70835225     0.19700
F2019       F  0.33847275  0.44776589  0.70114137    -0.13200
F2020       F  0.37485659  0.46404355  0.73160343    -0.15500
F2021       F  0.30683492  0.53042398  0.69434985    -0.15500
F2022       F  0.33971308  0.54639483  0.72805105    -0.13200
C2023       C  0.36329898  0.53638982  0.79949445     0.24900
C2024       C  0.35386032  0.52442868  0.77783308    -0.23300
C2025       C  0.32779361  0.51920297  0.77785002     0.19800
C2026       C  0.31210479  0.52872711  0.79614143     0.24800
C2027       C  0.32168869  0.54158485  0.81650787    -0.23200
C2028       C  0.34741134  0.54481867  0.81845439     0.19700
F2029       F  0.35718667  0.55615988  0.83878628    -0.13200
F2030       F  0.38802252  0.54022606  0.80235622    -0.15500
F2031       F  0.28740066  0.52366057  0.79487512    -0.15500
F2032       F  0.31705882  0.50303551  0.76178411    -0.13200
C2033       C  0.53898961  0.72225839  0.87065409     0.24900
C2034       C  0.51536749  0.73397252  0.86830710    -0.23300
C2035       C  0.49913518  0.72407689  0.84990895     0.19800
C2036       C  0.50702869  0.70639935  0.83282348     0.24800
C2037       C  0.53103665  0.69658165  0.83391154    -0.23200
C2038       C  0.54684855  0.70426545  0.85321705     0.19700
F2039       F  0.56956258  0.69364274  0.85579933    -0.13200
F2040       F  0.55409002  0.72668077  0.89032075    -0.15500
F2041       F  0.49109599  0.69935549  0.81452638    -0.15500
F2042       F  0.47572563  0.73286662  0.84707904    -0.13200
C2043       C  0.42599085  0.54538462  0.72021124     0.24900
C2044       C  0.42788193  0.56882191  0.73146313    -0.23300
C2045       C  0.40769033  0.57737151  0.74575212     0.19800
C2046       C  0.38778787  0.56160158  0.75164991     0.24800
C2047       C  0.38839839  0.53621193  0.74467366    -0.23200
C2048       C  0.40636378  0.52939572  0.72644613     0.19700
F2049       F  0.40677307  0.50601681  0.71701362    -0.13200
F2050       F  0.44434668  0.53681784  0.70516705    -0.15500
F2051       F  0.36830618  0.57153653  0.76415723    -0.15500
F2052       F  0.40743613  0.60100903  0.75454601    -0.13200
C2053       C  0.48880166  0.30533611  0.69468223     0.24900
C2054       C  0.51206763  0.31440087  0.70228175    -0.23300
C2055       C  0.53306131  0.30781965  0.68818655     0.19800
C2056       C  0.53094276  0.29210992  0.66731094     0.24800
C2057       C  0.50741331  0.28271818  0.65953199    -0.23200
C2058       C  0.48649658  0.29013329  0.67382224     0.19700
F2059       F  0.46338026  0.28188102  0.66814166    -0.13200
F2060       F  0.46802872  0.30990746  0.70827507    -0.15500
F2061       F  0.55237709  0.28511606  0.65607231    -0.15500
F2062       F  0.55586560  0.31635266  0.69474279    -0.13200
C2063       C  0.39534651  0.45511847  0.79012983     0.24900
C2064       C  0.42093471  0.45955919  0.79283752    -0.23300
C2065       C  0.43030269  0.48280387  0.78615863     0.19800
C2066       C  0.41493917  0.50084508  0.77571421     0.24800
C2067       C  0.38941126  0.49588052  0.77007528    -0.23200
C2068       C  0.37964444  0.47339092  0.77991468     0.19700
F2069       F  0.35492338  0.46856561  0.77871288    -0.13200
F2070       F  0.38552691  0.43299735  0.79730484    -0.15500
F2071       F  0.42544479  0.52356265  0.77284042    -0.15500
F2072       F  0.45483126  0.48801442  0.78897360    -0.13200
C2073       C  0.99748106  0.27987034  0.84101169     0.24900
C2074       C  0.00262741  0.28069815  0.86713440    -0.23300
C2075       C  0.01598462  0.30183339  0.87564738     0.19800
C2076       C  0.02620083  0.31911660  0.85887589     0.24800
C2077       C  0.02290268  0.31636998  0.83311368    -0.23200
C2078       C  0.00824044  0.29680091  0.82443960     0.19700
F2079       F  0.00281014  0.29500422  0.79979646    -0.13200
F2080       F  0.98054622  0.26409261  0.83105593    -0.15500
F2081       F  0.03963947  0.33848010  0.86785403    -0.15500
F2082       F  0.01992009  0.30550041  0.90031223    -0.13200
C2083       C  0.02419563  0.71946822  0.63554207     0.24900
C2084       C  0.01995034  0.74310004  0.64635319    -0.23300
C2085       C  0.03072162  0.74687336  0.67043215     0.19800
C2086       C  0.03960984  0.72709874  0.68463282     0.24800
C2087       C  0.03936730  0.70291405  0.67521585    -0.23200
C2088       C  0.03263978  0.69939248  0.65014406     0.19700
F2089       F  0.03403458  0.67642471  0.63983383    -0.13200
F2090       F  0.01903906  0.71533882  0.61117041    -0.15500
F2091       F  0.04723451  0.73169884  0.70829307    -0.15500
F2092       F  0.03321938  0.76973348  0.68076282    -0.13200
C2093       C  0.83810365  0.53768512  0.74666002     0.24900
C2094       C  0.85510376  0.51767276  0.74335065    -0.23300
C2095       C  0.85054696  0.50147320  0.72301624     0.19800
C2096       C  0.83108774  0.50599101  0.70633542     0.24800
C2097       C  0.81529635  0.52662991  0.70921687    -0.23200
C2098       C  0.81882706  0.54217209  0.72981079     0.19700
F2099       F  0.80401814  0.56223851  0.73346048    -0.13200
F2100       F  0.84055784  0.55360577  0.76607994    -0.15500
F2101       F  0.82703532  0.48921781  0.68791941    -0.15500
F2102       F  0.86354798  0.48016278  0.71976375    -0.13200
C2103       C  0.90993285  0.49534527  0.73632942     0.24900
C2104       C  0.89409538  0.49160607  0.75728976    -0.23300
C2105       C  0.90038522  0.47164663  0.77346052     0.19800
C2106       C  0.92141542  0.45699394  0.76918372     0.24800
C2107       C  0.93810750  0.46240588  0.74968586    -0.23200
C2108       C  0.93160486  0.48128890  0.73282555     0.19700
F2109       F  0.94688482  0.48731910  0.71362047    -0.13200
F2110       F  0.90522303  0.51381011  0.71976047    -0.15500
F2111       F  0.92558813  0.43768322  0.78489774    -0.15500
F2112       F  0.88789061  0.46714026  0.79492459    -0.13200
C2113       C  0.89507064  0.55531513  0.75269101     0.24900
C2114       C  0.89213774  0.53495933  0.76943643    -0.23300
C2115       C  0.90970959  0.53311149  0.78911900     0.19800
C2116       C  0.92962445  0.54968253  0.79118999     0.24800
C2117       C  0.93268606  0.56904764  0.77393030    -0.23200
C2118       C  0.91451955  0.57227110  0.75544191     0.19700
F2119       F  0.91597092  0.59147110  0.73906766    -0.13200
F2120       F  0.88104120  0.55804097  0.73191958    -0.15500
F2121       F  0.94682046  0.54552353  0.80917742    -0.15500
F2122       F  0.90839839  0.51421186  0.80583306    -0.13200
C2123       C  0.68961153  0.65895218  0.04010787     0.24900
C2124       C  0.69356549  0.68441899  0.04396814    -0.23300
C2125       C  0.71747832  0.69401701  0.04102405     0.19800
C2126       C  0.73654325  0.67923312  0.03165870     0.24800
C2127       C  0.73212675  0.65409439  0.02430118    -0.23200
C2128       C  0.70909469  0.64366489  0.03185807     0.19700
F2129       F  0.70460098  0.61902182  0.02898562    -0.13200
F2130       F  0.66666939  0.64903511  0.04354294    -0.15500
F2131       F  0.75934208  0.68993855  0.03071668    -0.15500
F2132       F  0.72220060  0.71832864  0.04586709    -0.13200
C2133       C  0.82104321  0.48036217  0.79967308     0.24900
C2134       C  0.81513660  0.49769329  0.81816825    -0.23300
C2135       C  0.83168840  0.51748262  0.82239614     0.19800
C2136       C  0.85222249  0.52143144  0.80685476     0.24800
C2137       C  0.85732426  0.50519055  0.78659697    -0.23200
C2138       C  0.84165647  0.48400115  0.78419405     0.19700
F2139       F  0.84537004  0.46736858  0.76559769    -0.13200
F2140       F  0.80572910  0.46088081  0.79503297    -0.15500
F2141       F  0.86506856  0.54277226  0.81054190    -0.15500
F2142       F  0.82742723  0.53396848  0.84104373    -0.13200
C2143       C  0.75025718  0.59198483  0.95510797     0.24900
C2144       C  0.72514950  0.59190096  0.94822825    -0.23300
C2145       C  0.70914168  0.60938053  0.95883518     0.19800
C2146       C  0.71774017  0.62595522  0.97702569     0.24800
C2147       C  0.74218182  0.62375358  0.98695020    -0.23200
C2148       C  0.75872252  0.60772461  0.97398986     0.19700
F2149       F  0.78291842  0.60594989  0.98086821    -0.13200
F2150       F  0.76647192  0.57592167  0.94434724    -0.15500
F2151       F  0.70234552  0.64480843  0.98336899    -0.15500
F2152       F  0.68527796  0.61105025  0.95084399    -0.13200
C2153       C  0.67176681  0.51836765  0.19965818     0.24900
C2154       C  0.68932837  0.50097135  0.20797194    -0.23300
C2155       C  0.68334975  0.48608877  0.22855961     0.19800
C2156       C  0.66161637  0.49046116  0.24221419     0.24800
C2157       C  0.64498510  0.51003596  0.23583803    -0.23200
C2158       C  0.65018022  0.52314482  0.21333416     0.19700
F2159       F  0.63635221  0.54262362  0.20541952    -0.13200
F2160       F  0.67598507  0.53186917  0.17867680    -0.15500
F2161       F  0.65787805  0.47668415  0.26308536    -0.15500
F2162       F  0.69950997  0.46861998  0.23689209    -0.13200
C2163       C  0.78182258  0.61143633  0.07138289     0.24900
C2164       C  0.77927629  0.58569544  0.06848640    -0.23300
C2165       C  0.76637677  0.57667948  0.04779653     0.19800
C2166       C  0.75654448  0.59291591  0.03002495     0.24800
C2167       C  0.76127423  0.61900725  0.03101361    -0.23200
C2168       C  0.77297745  0.62782601  0.05307749     0.19700
F2169       F  0.77649211  0.65245806  0.05687530    -0.13200
F2170       F  0.79325863  0.62079974  0.09186354    -0.15500
F2171       F  0.74076018  0.58264123  0.01329052    -0.15500
F2172       F  0.76166901  0.55198744  0.04560304    -0.13200
C2173       C  0.97082028  0.74450450  0.16570383     0.24900
C2174       C  0.98622152  0.73864727  0.14503394    -0.23300
C2175       C  0.99021941  0.71305415  0.14018521     0.19800
C2176       C  0.98181356  0.69479358  0.15693347     0.24800
C2177       C  0.96923769  0.70129123  0.17909741    -0.23200
C2178       C  0.96313296  0.72641334  0.18265881     0.19700
F2179       F  0.95071868  0.73414144  0.20320309    -0.13200
F2180       F  0.96454959  0.76840167  0.17067949    -0.15500
F2181       F  0.98576595  0.67061112  0.15103267    -0.15500
F2182       F  0.00118115  0.70513034  0.11888922    -0.13200
C2183       C  0.02351695  0.82167913  0.15687270     0.24900
C2184       C  0.02834873  0.81477473  0.18167693    -0.23300
C2185       C  0.02874978  0.78949978  0.18764835     0.19800
C2186       C  0.02046908  0.77183393  0.17049535     0.24800
C2187       C  0.01127830  0.77903987  0.14657282    -0.23200
C2188       C  0.01683408  0.80367887  0.13906960     0.19700
F2189       F  0.01293162  0.81107507  0.11520788    -0.13200
F2190       F  0.02439864  0.84596426  0.15008479    -0.15500
F2191       F  0.02138368  0.74774275  0.17792064    -0.15500
F2192       F  0.03545353  0.78188671  0.21081590    -0.13200
C2193       C  0.78156771  0.69393603  0.97718245     0.24900
C2194       C  0.80489321  0.69537566  0.98853941    -0.23300
C2195       C  0.81360103  0.67485400  0.00215312     0.19800
C2196       C  0.79814231  0.65436540  0.00667182     0.24800
C2197       C  0.77276906  0.65508950  0.99958858    -0.23200
C2198       C  0.76574013  0.67402519  0.98244645     0.19700
F2199       F  0.74235942  0.67498093  0.97310859    -0.13200
F2200       F  0.77290715  0.71310696  0.96321486    -0.15500
F2201       F  0.80827221  0.63428807  0.01803954    -0.15500
F2202       F  0.83698977  0.67490009  0.01160987    -0.13200
C2203       C  0.95915277  0.75595005  0.10003177     0.24900
C2204       C  0.97237454  0.77138602  0.11697927    -0.23300
C2205       C  0.96226721  0.79545806  0.12128381     0.19800
C2206       C  0.94378892  0.80512189  0.10558321     0.24800
C2207       C  0.93286275  0.79020545  0.08731191    -0.23200
C2208       C  0.93985019  0.76525505  0.08551797     0.19700
F2209       F  0.92876928  0.75002517  0.06869497    -0.13200
F2210       F  0.96612663  0.73209483  0.09597982    -0.15500
F2211       F  0.93602085  0.82889961  0.10873181    -0.15500
F2212       F  0.96873352  0.80938296  0.14123615    -0.13200
C2213       C  0.05399233  0.73189840  0.09505787     0.24900
C2214       C  0.04954174  0.73766802  0.06996064    -0.23300
C2215       C  0.02931933  0.75277729  0.06405066     0.19800
C2216       C  0.01336879  0.76144493  0.08270368     0.24800
C2217       C  0.01567293  0.75329909  0.10799624    -0.23200
C2218       C  0.03742651  0.73954176  0.11375937     0.19700
F2219       F  0.04251670  0.73274338  0.13750899    -0.13200
F2220       F  0.07439185  0.71854455  0.10150724    -0.15500
F2221       F  0.99696346  0.77922584  0.07567010    -0.15500
F2222       F  0.02597369  0.76073911  0.04025993    -0.13200
C2223       C  0.20687000  0.82875325  0.02142914     0.24900
C2224       C  0.20099297  0.82209165  0.99679490    -0.23300
C2225       C  0.20943915  0.83764812  0.97746512     0.19800
C2226       C  0.22412855  0.85872413  0.98256209     0.24800
C2227       C  0.23027708  0.86546381  0.00747942    -0.23200
C2228       C  0.22066233  0.84999980  0.02662952     0.19700
F2229       F  0.22536580  0.85483532  0.05095204    -0.13200
F2230       F  0.20059481  0.81398897  0.04095766    -0.15500
F2231       F  0.23327638  0.87134242  0.96269948    -0.15500
F2232       F  0.20385066  0.83235947  0.95340594    -0.13200
loop_ 
_geom_bond_atom_site_label_1 
_geom_bond_atom_site_label_2 
_geom_bond_distance 
_geom_bond_site_symmetry_2 
_ccdc_geom_bond_type 
N1            N2   1.329       .  A
N1            C5   1.350       .  A
N1           Cu9   2.109       .  S
N2            C3   1.350       .  A
N2           Cu8   2.109       .  S
C3            C4   1.383       .  A
C3            H6   1.082       .  S
C4            C5   1.384       .  A
C4         C1004   1.477       .  S
C5            H7   1.082       .  S
Cu8          N11   2.106   1_556  S
Cu9          N19   2.105       .  S
Cu10         N12   2.041       .  S
Cu10         N18   2.044   1_554  S
N11          N12   1.319       .  A
N11          C15   1.352       .  A
N12          C13   1.341       .  A
C13          C14   1.377       .  A
C13          H16   1.082       .  S
C14          C15   1.395       .  A
C14        C2214   1.481       .  S
C15          H17   1.082       .  S
N18          N19   1.317       .  A
N18          C22   1.336   1_556  A
N19          C20   1.355       .  A
C20          C21   1.401       .  A
C20          H23   1.081       .  S
C21          C22   1.384   1_556  A
C21        C2224   1.499       .  S
C22          H24   1.080       .  S
N25          N26   1.326       .  A
N25          C29   1.348       .  A
N25         Cu33   2.093       .  S
N26          C27   1.347       .  A
N26         Cu32   2.088       .  S
C27          C28   1.382       .  A
C27          H30   1.082       .  S
C28          C29   1.383       .  A
C28        C1267   1.470       .  S
C29          H31   1.082       .  S
Cu32         N35   2.086       .  S
Cu33         N43   2.092   1_556  S
Cu34         N36   2.053       .  S
Cu34         N42   2.050       .  S
N35          N36   1.320   1_556  A
N35          C39   1.349       .  A
N36          C37   1.341       .  A
C37          C38   1.380   1_554  A
C37          H40   1.082       .  S
C38          C39   1.389       .  A
C38        C2194   1.478       .  S
C39          H41   1.081       .  S
N42          N43   1.321       .  A
N42          C46   1.340       .  A
N43          C44   1.349       .  A
C44          C45   1.389       .  A
C44          H47   1.082       .  S
C45          C46   1.379       .  A
C45        C2207   1.474       .  S
C46          H48   1.082       .  S
C49        C2174   1.567       .  S
C49        C2187   1.575   1_655  S
C49        C2204   1.570       .  S
C49        C2217   1.575   1_655  S
N50          N51   1.325       .  A
N50          C54   1.346       .  A
N50         Cu58   2.085       .  S
N51          C52   1.351       .  A
N51         Cu57   2.101       .  S
C52          C53   1.387       .  A
C52          H55   1.082       .  S
C53          C54   1.383       .  A
C53         C953   1.477       .  S
C54          H56   1.082       .  S
Cu57         N60   2.101       .  S
Cu58         N68   2.084       .  S
Cu59         N61   2.061       .  S
Cu59         N67   2.062       .  S
N60          N61   1.322       .  A
N60          C64   1.348       .  A
N61          C62   1.345       .  A
C62          C63   1.381       .  A
C62          H65   1.083       .  S
C63          C64   1.390       .  A
C63        C2164   1.482       .  S
C64          H66   1.082       .  S
N67          N68   1.321       .  A
N67          C71   1.341       .  A
N68          C69   1.349       .  A
C69          C70   1.391       .  A
C69          H72   1.082       .  S
C70          C71   1.384       .  A
C70        C2154   1.487       .  S
C71          H73   1.081       .  S
N74          N75   1.327       .  A
N74          C78   1.350       .  A
N74         Cu82   2.108       .  S
N75          C76   1.350       .  A
N75         Cu81   2.103       .  S
C76          C77   1.384       .  A
C76          H79   1.082       .  S
C77          C78   1.385       .  A
C77         C909   1.479       .  S
C78          H80   1.082       .  S
Cu81         N84   2.100       .  S
Cu82         N92   2.105       .  S
Cu83         N85   2.045       .  S
Cu83         N91   2.045       .  S
N84          N85   1.321       .  A
N84          C88   1.351       .  A
N85          C86   1.341       .  A
C86          C87   1.377       .  A
C86          H89   1.082       .  S
C87          C88   1.391       .  A
C87        C2144   1.477       .  S
C88          H90   1.082       .  S
N91          N92   1.320       .  A
N91          C95   1.339       .  A
N92          C93   1.352       .  A
C93          C94   1.396       .  A
C93          H96   1.082       .  S
C94          C95   1.381       .  A
C94        C2134   1.489       .  S
C95          H97   1.081       .  S
C98        C2127   1.571       .  S
C98        C2147   1.570   1_554  S
C98        C2167   1.574       .  S
C98        C2197   1.564   1_554  S
C99        C2094   1.565       .  S
C99        C2104   1.572       .  S
C99        C2114   1.567       .  S
C99        C2137   1.567       .  S
N100        N101   1.321       .  A
N100        C104   1.348       .  A
N100       Cu108   2.100       .  S
N101        C102   1.345       .  A
N101       Cu107   2.062       .  S
C102        C103   1.383       .  A
C102        H105   1.082       .  S
C103        C104   1.393       .  A
C103       C2087   1.487       .  S
C104        H106   1.082       .  S
Cu107       N110   2.062   1_455  S
Cu108       N118   2.100       .  S
Cu109       N111   2.086   1_455  S
Cu109       N117   2.088       .  S
N110        N111   1.321       .  A
N110        C114   1.340       .  A
N111        C112   1.348       .  A
C112        C113   1.391       .  A
C112        H115   1.081       .  S
C113        C114   1.385       .  A
C113       C2117   1.488       .  S
C114        H116   1.081       .  S
N117        N118   1.325       .  A
N117        C121   1.348       .  A
N118        C119   1.349       .  A
C119        C120   1.385       .  A
C119        H122   1.082       .  S
C120        C121   1.383       .  A
C120       C1008   1.475       .  S
C121        H123   1.082       .  S
N124        N125   1.322       .  A
N124        C128   1.350       .  A
N124       Cu132   2.102       .  S
N125        C126   1.344       .  A
N125       Cu131   2.063       .  S
C126        C127   1.380       .  A
C126        H129   1.082       .  S
C127        C128   1.392       .  A
C127       C2077   1.482       .  S
C128        H130   1.082       .  S
Cu131       N134   2.064   1_455  S
Cu132       N142   2.103       .  S
Cu133       N135   2.100   1_455  S
Cu133       N141   2.102       .  S
N134        N135   1.320       .  A
N134        C138   1.340       .  A
N135        C136   1.352       .  A
C136        C137   1.397       .  A
C136        H139   1.081       .  S
C137        C138   1.387       .  A
C137       C2107   1.499       .  S
C138        H140   1.080       .  S
N141        N142   1.327       .  A
N141        C145   1.350       .  A
N142        C143   1.350       .  A
C143        C144   1.385       .  A
C143        H146   1.082       .  S
C144        C145   1.385       .  A
C144        C687   1.479       .  S
C145        H147   1.082       .  S
N148        N149   1.328       .  A
N148        C152   1.352       .  A
N148       Cu156   2.112       .  S
N149        C150   1.351       .  A
N149       Cu155   2.114       .  S
C150        C151   1.386       .  A
C150        H153   1.082       .  S
C151        C152   1.386       .  A
C151        C911   1.484       .  S
C152        H154   1.082       .  S
Cu155       N158   2.111       .  S
Cu156       N166   2.110       .  S
Cu157       N159   2.051       .  S
Cu157       N165   2.049       .  S
N158        N159   1.320       .  A
N158        C162   1.355       .  A
N159        C160   1.338       .  A
C160        C161   1.382       .  A
C160        H163   1.082       .  S
C161        C162   1.398       .  A
C161       C2054   1.495       .  S
C162        H164   1.081       .  S
N165        N166   1.320       .  A
N165        C169   1.343       .  A
N166        C167   1.350       .  A
C167        C168   1.396       .  A
C167        H170   1.082       .  S
C168        C169   1.379       .  A
C168       C2064   1.484       .  S
C169        H171   1.082       .  S
N172        N173   1.329       .  A
N172        C176   1.350       .  A
N172       Cu180   2.107       .  S
N173        C174   1.348       .  A
N173       Cu179   2.099       .  S
C174        C175   1.381       .  A
C174        H177   1.082       .  S
C175        C176   1.383       .  A
C175       C1263   1.473       .  S
C176        H178   1.082       .  S
Cu179       N182   2.096       .  S
Cu180       N190   2.105       .  S
Cu181       N183   2.059       .  S
Cu181       N189   2.057       .  S
N182        N183   1.319       .  A
N182        C186   1.352       .  A
N183        C184   1.341       .  A
C184        C185   1.384       .  A
C184        H187   1.082       .  S
C185        C186   1.395       .  A
C185       C2044   1.490       .  S
C186        H188   1.081       .  S
N189        N190   1.320       .  A
N189        C193   1.338       .  A
N190        C191   1.355       .  A
C191        C192   1.395       .  A
C191        H194   1.082       .  S
C192        C193   1.381       .  A
C192       C2037   1.484       .  S
C193        H195   1.082       .  S
C196       C2014   1.570       .  S
C196       C2024   1.575       .  S
C196       C2047   1.567       .  S
C196       C2067   1.577       .  S
N197        N198   1.320       .  A
N197        C201   1.351       .  A
N197       Cu205   2.099       .  S
N198        C199   1.339       .  A
N198       Cu204   2.051       .  S
C199        C200   1.381       .  A
C199        H202   1.081       .  S
C200        C201   1.395       .  A
C200       C2097   1.489       .  S
C201        H203   1.081       .  S
Cu204       N207   2.051       .  S
Cu205       N215   2.101       .  S
Cu206       N208   2.099       .  S
Cu206       N214   2.101       .  S
N207        N208   1.318       .  A
N207        C211   1.340       .  A
N208        C209   1.352       .  A
C209        C210   1.398       .  A
C209        H212   1.081       .  S
C210        C211   1.385       .  A
C210       C2004   1.497       .  S
C211        H213   1.080       .  S
N214        N215   1.327       .  A
N214        C218   1.349       .  A
N215        C216   1.349       .  A
C216        C217   1.385       .  A
C216        H219   1.082       .  S
C217        C218   1.384       .  A
C217       C1261   1.477       .  S
C218        H220   1.082       .  S
N221        N222   1.319       .  A
N221        C225   1.340       .  A
N221       Cu229   2.055       .  S
N222        C223   1.348       .  A
N222       Cu228   2.092       .  S
C223        C224   1.395       .  A
C223        H226   1.081       .  S
C224        C225   1.386       .  A
C224       C1994   1.493       .  S
C225        H227   1.080       .  S
Cu228       N231   2.094       .  S
Cu229       N239   2.058       .  S
Cu230       N232   2.103       .  S
Cu230       N238   2.100       .  S
N231        N232   1.326       .  A
N231        C235   1.349       .  A
N232        C233   1.350       .  A
C233        C234   1.385       .  A
C233        H236   1.082       .  S
C234        C235   1.384       .  A
C234        C805   1.478       .  S
C235        H237   1.082       .  S
N238        N239   1.321       .  A
N238        C242   1.352       .  A
N239        C240   1.341       .  A
C240        C241   1.382       .  A
C240        H243   1.082       .  S
C241        C242   1.393       .  A
C241       C1984   1.487       .  S
C242        H244   1.081       .  S
C245       C1967   1.573       .  S
C245       C1974   1.567       .  S
C245       C1997   1.564       .  S
C245       C2007   1.572       .  S
N246        N247   1.320       .  A
N246        C250   1.355       .  A
N246       Cu254   2.110   1_545  S
N247        C248   1.339       .  A
N247       Cu253   2.058   1_545  S
C248        C249   1.384       .  A
C248        H251   1.081       .  S
C249        C250   1.398       .  A
C249       C1947   1.496       .  S
C250        H252   1.082       .  S
Cu253       N256   2.057       .  S
Cu254       N264   2.112       .  S
Cu255       N257   2.104       .  S
Cu255       N263   2.107       .  S
N256        N257   1.320       .  A
N256        C260   1.342       .  A
N257        C258   1.352       .  A
C258        C259   1.392       .  A
C258        H261   1.082       .  S
C259        C260   1.381       .  A
C259       C1954   1.482       .  S
C260        H262   1.082   1_565  S
N263        N264   1.328       .  A
N263        C267   1.350       .  A
N264        C265   1.351       .  A
C265        C266   1.386       .  A
C265        H268   1.082       .  S
C266        C267   1.385       .  A
C266       C1218   1.481       .  S
C267        H269   1.082       .  S
N270        N271   1.320       .  A
N270        C274   1.348       .  A
N270       Cu278   2.099       .  S
N271        C272   1.344       .  A
N271       Cu277   2.058       .  S
C272        C273   1.381       .  A
C272        H275   1.083       .  S
C273        C274   1.392       .  A
C273       C1924   1.479       .  S
C274        H276   1.082       .  S
Cu277       N280   2.060   1_565  S
Cu278       N288   2.100       .  S
Cu279       N281   2.102   1_565  S
Cu279       N287   2.102       .  S
N280        N281   1.322       .  A
N280        C284   1.340       .  A
N281        C282   1.352       .  A
C282        C283   1.394       .  A
C282        H285   1.082       .  S
C283        C284   1.382       .  A
C283       C1934   1.489       .  S
C284        H286   1.082       .  S
N287        N288   1.326       .  A
N287        C291   1.349       .  A
N288        C289   1.350       .  A
C289        C290   1.385       .  A
C289        H292   1.082       .  S
C290        C291   1.385       .  A
C290       C1269   1.476       .  S
C291        H293   1.082       .  S
C294       C1904   1.569       .  S
C294       C1914   1.571   1_554  S
C294       C1937   1.571   1_554  S
C294       C1944   1.573       .  S
C295       C1874   1.580       .  S
C295       C1884   1.570       .  S
C295       C1894   1.577       .  S
C295       C2034   1.573       .  S
N296        N297   1.322       .  A
N296        C300   1.344       .  A
N296       Cu304   2.063   1_556  S
N297        C298   1.353       .  A
N297       Cu303   2.112   1_556  S
C298        C299   1.394       .  A
C298        H301   1.081       .  S
C299        C300   1.380       .  A
C299       C1897   1.484       .  S
C300        H302   1.082       .  S
Cu303       N306   2.113       .  S
Cu304       N314   2.062       .  S
Cu305       N307   2.094       .  S
Cu305       N313   2.092       .  S
N306        N307   1.327       .  A
N306        C310   1.351       .  A
N307        C308   1.349       .  A
C308        C309   1.383       .  A
C308        H311   1.082       .  S
C309        C310   1.386       .  A
C309       C1220   1.478       .  S
C310        H312   1.082       .  S
N313        N314   1.321       .  A
N313        C317   1.348       .  A
N314        C315   1.343       .  A
C315        C316   1.380       .  A
C315        H318   1.082       .  S
C316        C317   1.391       .  A
C316       C2124   1.476       .  S
C317        H319   1.082       .  S
N320        N321   1.329       .  A
N320        C324   1.349       .  A
N320       Cu328   2.106       .  S
N321        C322   1.350       .  A
N321       Cu327   2.108       .  S
C322        C323   1.384       .  A
C322        H325   1.082       .  S
C323        C324   1.383       .  A
C323        C801   1.477       .  S
C324        H326   1.082       .  S
Cu327       N330   2.105   1_554  S
Cu328       N338   2.103       .  S
Cu329       N331   2.050   1_554  S
Cu329       N337   2.050       .  S
N330        N331   1.320       .  A
N330        C334   1.354       .  A
N331        C332   1.339       .  A
C332        C333   1.380       .  A
C332        H335   1.082       .  S
C333        C334   1.396       .  A
C333       C1887   1.487       .  S
C334        H336   1.082       .  S
N337        N338   1.319       .  A
N337        C341   1.339       .  A
N338        C339   1.354       .  A
C339        C340   1.395       .  A
C339        H342   1.082       .  S
C340        C341   1.381       .  A
C340       C1867   1.489       .  S
C341        H343   1.082       .  S
N344        N345   1.320       .  A
N344        C348   1.355       .  A
N344       Cu352   2.110       .  S
N345        C346   1.339       .  A
N345       Cu351   2.055       .  S
C346        C347   1.382       .  A
C346        H349   1.082       .  S
C347        C348   1.397       .  A
C347       C1844   1.494       .  S
C348        H350   1.082       .  S
Cu351       N354   2.054       .  S
Cu352       N362   2.112       .  S
Cu353       N355   2.114       .  S
Cu353       N361   2.116       .  S
N354        N355   1.321       .  A
N354        C358   1.344       .  A
N355        C356   1.351       .  A
C356        C357   1.396       .  A
C356        H359   1.082       .  S
C357        C358   1.380       .  A
C357       C1854   1.485       .  S
C358        H360   1.082       .  S
N361        N362   1.329       .  A
N361        C365   1.353       .  A
N362        C363   1.350       .  A
C363        C364   1.385       .  A
C363        H366   1.082       .  S
C364        C365   1.387       .  A
C364       C1010   1.483       .  S
C365        H367   1.082       .  S
C368       C1827   1.566   1_565  S
C368       C1834   1.566       .  S
C368       C1857   1.574   1_565  S
C368       C1927   1.579       .  S
N369        N370   1.329       .  A
N369        C373   1.350       .  A
N369       Cu377   2.105       .  S
N370        C371   1.353       .  A
N370       Cu376   2.123       .  S
C371        C372   1.388       .  A
C371        H374   1.082       .  S
C372        C373   1.383       .  A
C372        C697   1.483       .  S
C373        H375   1.082       .  S
Cu376       N379   2.120       .  S
Cu377       N387   2.101       .  S
Cu378       N380   2.040       .  S
Cu378       N386   2.042       .  S
N379        N380   1.320       .  A
N379        C383   1.354       .  A
N380        C381   1.341       .  A
C381        C382   1.376       .  A
C381        H384   1.082       .  S
C382        C383   1.397       .  A
C382       C1877   1.481       .  S
C383        H385   1.082       .  S
N386        N387   1.319       .  A
N386        C390   1.337       .  A
N387        C388   1.354       .  A
C388        C389   1.396       .  A
C388        H391   1.082       .  S
C389        C390   1.378       .  A
C389       C1837   1.484       .  S
C390        H392   1.082       .  S
N393        N394   1.318       .  A
N393        C397   1.360       .  A
N393       Cu401   2.131   1_455  S
N394        C395   1.337       .  A
N394       Cu400   2.043   1_455  S
C395        C396   1.382       .  A
C395        H398   1.081       .  S
C396        C397   1.403       .  A
C396       C1804   1.499       .  S
C397        H399   1.081       .  S
Cu400       N403   2.040       .  S
Cu401       N411   2.136       .  S
Cu402       N404   2.114       .  S
Cu402       N410   2.118       .  S
N403        N404   1.318       .  A
N403        C407   1.337       .  A
N404        C405   1.356       .  A
C405        C406   1.398       .  A
C405        H408   1.082       .  S
C406        C407   1.379       .  A
C406       C1814   1.485       .  S
C407        H409   1.083       .  S
N410        N411   1.331       .  A
N410        C414   1.352       .  A
N411        C412   1.354       .  A
C412        C413   1.389       .  A
C412        H415   1.082       .  S
C413        C414   1.384       .  A
C413        C945   1.488       .  S
C414        H416   1.082       .  S
N417        N418   1.319       .  A
N417        C421   1.341       .  A
N417       Cu425   2.046       .  S
N418        C419   1.348       .  A
N418       Cu424   2.095   1_455  S
C419        C420   1.391       .  A
C419        H422   1.082       .  S
C420        C421   1.379       .  A
C420       C1794   1.471       .  S
C421        H423   1.083       .  S
Cu424       N427   2.098       .  S
Cu425       N435   2.047   1_455  S
Cu426       N428   2.114       .  S
Cu426       N434   2.113       .  S
N427        N428   1.328       .  A
N427        C431   1.350       .  A
N428        C429   1.350       .  A
C429        C430   1.385       .  A
C429        H432   1.082       .  S
C430        C431   1.384       .  A
C430       C1271   1.478       .  S
C431        H433   1.082       .  S
N434        N435   1.320       .  A
N434        C438   1.355       .  A
N435        C436   1.339   1_655  A
C436        C437   1.378   1_455  A
C436        H439   1.082       .  S
C437        C438   1.397       .  A
C437       C1784   1.488       .  S
C438        H440   1.082       .  S
C441       C1767   1.564       .  S
C441       C1777   1.574       .  S
C441       C1797   1.573   1_545  S
C441       C1807   1.574       .  S
N442        N443   1.330       .  A
N442        C446   1.351       .  A
N442       Cu450   2.120       .  S
N443        C444   1.355       .  A
N443       Cu449   2.127       .  S
C444        C445   1.389       .  A
C444        H447   1.082       .  S
C445        C446   1.385       .  A
C445       C1226   1.488       .  S
C446        H448   1.082       .  S
Cu449       N452   2.122       .  S
Cu450       N460   2.117       .  S
Cu451       N453   2.037       .  S
Cu451       N459   2.042       .  S
N452        N453   1.320       .  A
N452        C456   1.356       .  A
N453        C454   1.338       .  A
C454        C455   1.377       .  A
C454        H457   1.082       .  S
C455        C456   1.398       .  A
C455       C1744   1.485       .  S
C456        H458   1.082       .  S
N459        N460   1.319       .  A
N459        C463   1.338       .  A
N460        C461   1.357       .  A
C461        C462   1.398       .  A
C461        H464   1.081       .  S
C462        C463   1.378       .  A
C462       C1757   1.483       .  S
C463        H465   1.083       .  S
N466        N467   1.329       .  A
N466        C470   1.348       .  A
N466       Cu474   2.094       .  S
N467        C468   1.352       .  A
N467       Cu473   2.121       .  S
C468        C469   1.387       .  A
C468        H471   1.082       .  S
C469        C470   1.381       .  A
C469        C807   1.478       .  S
C470        H472   1.082       .  S
Cu473       N476   2.119       .  S
Cu474       N484   2.091       .  S
Cu475       N477   2.054       .  S
Cu475       N483   2.052       .  S
N476        N477   1.320       .  A
N476        C480   1.356       .  A
N477        C478   1.339       .  A
C478        C479   1.383       .  A
C478        H481   1.082       .  S
C479        C480   1.398       .  A
C479       C1734   1.494       .  S
C480        H482   1.082       .  S
N483        N484   1.320       .  A
N483        C487   1.340       .  A
N484        C485   1.350       .  A
C485        C486   1.392       .  A
C485        H488   1.082       .  S
C486        C487   1.378       .  A
C486       C1724   1.476       .  S
C487        H489   1.082       .  S
C490       C1737   1.572   1_455  S
C490       C1754   1.584       .  S
C490       C1787   1.570   1_455  S
C490       C2084   1.575       .  S
C491       C1694   1.567       .  S
C491       C1704   1.567       .  S
C491       C1714   1.573       .  S
C491       C1727   1.571       .  S
N492        N493   1.331       .  A
N492        C496   1.351       .  A
N492       Cu500   2.119       .  S
N493        C494   1.350       .  A
N493       Cu499   2.111       .  S
C494        C495   1.383       .  A
C494        H497   1.082       .  S
C495        C496   1.385       .  A
C495        C943   1.481       .  S
C496        H498   1.082       .  S
Cu499       N502   2.104       .  S
Cu500       N510   2.114   1_545  S
Cu501       N503   2.026   1_565  S
Cu501       N509   2.023       .  S
N502        N503   1.316       .  A
N502        C506   1.357       .  A
N503        C504   1.331       .  A
C504        C505   1.379       .  A
C504        H507   1.080   1_545  S
C505        C506   1.401       .  A
C505       C1824   1.491       .  S
C506        H508   1.081       .  S
N509        N510   1.317       .  A
N509        C513   1.339       .  A
N510        C511   1.354       .  A
C511        C512   1.396       .  A
C511        H514   1.081       .  S
C512        C513   1.375       .  A
C512       C1707   1.477       .  S
C513        H515   1.082       .  S
N516        N517   1.319       .  A
N516        C520   1.342       .  A
N516       Cu524   2.047   1_565  S
N517        C518   1.350       .  A
N517       Cu523   2.105   1_565  S
C518        C519   1.394       .  A
C518        H521   1.082       .  S
C519        C520   1.379       .  A
C519       C1717   1.476       .  S
C520        H522   1.082       .  S
Cu523       N526   2.108       .  S
Cu524       N534   2.049       .  S
Cu525       N527   2.115       .  S
Cu525       N533   2.112       .  S
N526        N527   1.328       .  A
N526        C530   1.350       .  A
N527        C528   1.352       .  A
C528        C529   1.387       .  A
C528        H531   1.082       .  S
C529        C530   1.384       .  A
C529        C917   1.481       .  S
C530        H532   1.082       .  S
N533        N534   1.321       .  A
N533        C537   1.355       .  A
N534        C535   1.339       .  A
C535        C536   1.377       .  A
C535        H538   1.082   1_545  S
C536        C537   1.394       .  A
C536       C1684   1.479       .  S
C537        H539   1.082       .  S
N540        N541   1.328       .  A
N540        C544   1.348       .  A
N540       Cu548   2.102       .  S
N541        C542   1.350       .  A
N541       Cu547   2.102       .  S
C542        C543   1.384       .  A
C542        H545   1.082       .  S
C543        C544   1.383       .  A
C543       C1265   1.475       .  S
C544        H546   1.082       .  S
Cu547       N550   2.100       .  S
Cu548       N558   2.099       .  S
Cu549       N551   2.054       .  S
Cu549       N557   2.055       .  S
N550        N551   1.321       .  A
N550        C554   1.350       .  A
N551        C552   1.341       .  A
C552        C553   1.378       .  A
C552        H555   1.082       .  S
C553        C554   1.391       .  A
C553       C1674   1.474       .  S
C554        H556   1.082       .  S
N557        N558   1.320       .  A
N557        C561   1.340       .  A
N558        C559   1.352       .  A
C559        C560   1.395       .  A
C559        H562   1.081       .  S
C560        C561   1.382       .  A
C560       C1697   1.489       .  S
C561        H563   1.082       .  S
N564        N565   1.319       .  A
N564        C568   1.355       .  A
N564       Cu572   2.111       .  S
N565        C566   1.339       .  A
N565       Cu571   2.046       .  S
C566        C567   1.379       .  A
C566        H569   1.082       .  S
C567        C568   1.396       .  A
C567       C1664   1.481       .  S
C568        H570   1.081       .  S
Cu571       N574   2.042       .  S
Cu572       N582   2.115       .  S
Cu573       N575   2.113       .  S
Cu573       N581   2.116       .  S
N574        N575   1.320       .  A
N574        C578   1.338       .  A
N575        C576   1.355       .  A
C576        C577   1.396       .  A
C576        H579   1.082       .  S
C577        C578   1.377       .  A
C577       C1654   1.480       .  S
C578        H580   1.082       .  S
N581        N582   1.329       .  A
N581        C585   1.352       .  A
N582        C583   1.351       .  A
C583        C584   1.385       .  A
C583        H586   1.082       .  S
C584        C585   1.385       .  A
C584        C693   1.482       .  S
C585        H587   1.082       .  S
C588       C1634   1.566       .  S
C588       C1644   1.573       .  S
C588       C1657   1.570       .  S
C588       C1677   1.574       .  S
N589        N590   1.318       .  A
N589        C593   1.338       .  A
N589       Cu597   2.045       .  S
N590        C591   1.354       .  A
N590       Cu596   2.111       .  S
C591        C592   1.402       .  A
C591        H594   1.081       .  S
C592        C593   1.383       .  A
C592       C1614   1.498       .  S
C593        H595   1.080       .  S
Cu596       N599   2.113       .  S
Cu597       N607   2.046       .  S
Cu598       N600   2.121       .  S
Cu598       N606   2.118       .  S
N599        N600   1.330       .  A
N599        C603   1.352       .  A
N600        C601   1.351       .  A
C601        C602   1.386       .  A
C601        H604   1.082       .  S
C602        C603   1.385       .  A
C602       C1259   1.483       .  S
C603        H605   1.082       .  S
N606        N607   1.319       .  A
N606        C610   1.356       .  A
N607        C608   1.340       .  A
C608        C609   1.380       .  A
C608        H611   1.082       .  S
C609        C610   1.399       .  A
C609       C1624   1.493       .  S
C610        H612   1.082       .  S
C613       C1604   1.569       .  S
C613       C1627   1.573       .  S
C613       C1847   1.570       .  S
C613       C2057   1.570       .  S
N614        N615   1.329       .  A
N614        C618   1.350       .  A
N614       Cu622   2.105       .  S
N615        C616   1.352       .  A
N615       Cu621   2.116       .  S
C616        C617   1.386       .  A
C616        H619   1.082       .  S
C617        C618   1.384       .  A
C617        C913   1.481       .  S
C618        H620   1.082       .  S
Cu621       N624   2.114       .  S
Cu622       N632   2.101       .  S
Cu623       N625   2.038       .  S
Cu623       N631   2.036       .  S
N624        N625   1.320       .  A
N624        C628   1.352       .  A
N625        C626   1.342       .  A
C626        C627   1.377       .  A
C626        H629   1.082       .  S
C627        C628   1.395       .  A
C627       C1607   1.483       .  S
C628        H630   1.081       .  S
N631        N632   1.318       .  A
N631        C635   1.335       .  A
N632        C633   1.353       .  A
C633        C634   1.398       .  A
C633        H636   1.081       .  S
C634        C635   1.380       .  A
C634       C1977   1.489       .  S
C635        H637   1.080       .  S
N638        N639   1.320       .  A
N638        C642   1.341       .  A
N638       Cu646   2.049   1_565  S
N639        C640   1.351       .  A
N639       Cu645   2.105       .  S
C640        C641   1.394       .  A
C640        H643   1.081       .  S
C641        C642   1.377       .  A
C641       C1774   1.478       .  S
C642        H644   1.083   1_565  S
Cu645       N648   2.106       .  S
Cu646       N656   2.049       .  S
Cu647       N649   2.121       .  S
Cu647       N655   2.119   1_565  S
N648        N649   1.328       .  A
N648        C652   1.351       .  A
N649        C650   1.353       .  A
C650        C651   1.389       .  A
C650        H653   1.082       .  S
C651        C652   1.385       .  A
C651        C695   1.486       .  S
C652        H654   1.082       .  S
N655        N656   1.322       .  A
N655        C659   1.353       .  A
N656        C657   1.342       .  A
C657        C658   1.377       .  A
C657        H660   1.082       .  S
C658        C659   1.394       .  A
C658       C1594   1.479       .  S
C659        H661   1.082       .  S
C662       C1577   1.572       .  S
C662       C1587   1.571       .  S
C662       C1597   1.580       .  S
C662       C1617   1.568       .  S
N663        N664   1.327       .  A
N663        C667   1.351       .  A
N663       Cu671   2.108       .  S
N664        C665   1.351       .  A
N664       Cu670   2.111       .  S
C665        C666   1.386       .  A
C665        H668   1.082       .  S
C666        C667   1.386       .  A
C666        C689   1.483       .  S
C667        H669   1.082       .  S
Cu670       N673   2.109       .  S
Cu671       N681   2.106       .  S
Cu672       N674   2.051       .  S
Cu672       N680   2.050       .  S
N673        N674   1.321       .  A
N673        C677   1.354       .  A
N674        C675   1.340       .  A
C675        C676   1.379       .  A
C675        H678   1.082       .  S
C676        C677   1.394       .  A
C676       C1564   1.484       .  S
C677        H679   1.082       .  S
N680        N681   1.320       .  A
N680        C684   1.343       .  A
N681        C682   1.349       .  A
C682        C683   1.395       .  A
C682        H685   1.082       .  S
C683        C684   1.381       .  A
C683       C1574   1.485       .  S
C684        H686   1.082       .  S
C687        N688   1.362       .  A
C687        N692   1.362       .  A
N688        C689   1.363       .  A
C689        N690   1.365       .  A
N690        C691   1.365       .  A
C691        N692   1.361       .  A
C691        C737   1.484       .  S
C693        N694   1.364       .  A
C693        N698   1.362       .  A
N694        C695   1.364       .  A
C695        N696   1.364       .  A
N696        C697   1.364       .  A
C697        N698   1.362       .  A
N699        N700   1.321       .  A
N699        C703   1.348       .  A
N699       Cu707   2.097       .  S
N700        C701   1.345       .  A
N700       Cu706   2.062       .  S
C701        C702   1.383       .  A
C701        H704   1.082       .  S
C702        C703   1.393       .  A
C702       C1554   1.487       .  S
C703        H705   1.081       .  S
Cu706       N709   2.063       .  S
Cu707       N717   2.098       .  S
Cu708       N710   2.104       .  S
Cu708       N716   2.106       .  S
N709        N710   1.322       .  A
N709        C713   1.341       .  A
N710        C711   1.352       .  A
C711        C712   1.394       .  A
C711        H714   1.081       .  S
C712        C713   1.384       .  A
C712       C1544   1.492       .  S
C713        H715   1.081       .  S
N716        N717   1.326       .  A
N716        C720   1.351       .  A
N717        C718   1.349       .  A
C718        C719   1.384       .  A
C718        H721   1.082       .  S
C719        C720   1.387       .  A
C719       C1257   1.479       .  S
C720        H722   1.082       .  S
C723       C1534   1.571       .  S
C723       C1557   1.574       .  S
C723       C1667   1.582       .  S
C723       C1747   1.569       .  S
N724        N725   1.320       .  A
N724        C728   1.342       .  A
N724       Cu732   2.049       .  S
N725        C726   1.353       .  A
N725       Cu731   2.112       .  S
C726        C727   1.397       .  A
C726        H729   1.082       .  S
C727        C728   1.380       .  A
C727       C1537   1.489       .  S
C728        H730   1.082       .  S
Cu731       N734   2.114       .  S
Cu732       N742   2.045       .  S
Cu733       N735   2.118       .  S
Cu733       N741   2.116       .  S
N734        N735   1.329       .  A
N734        C738   1.352       .  A
N735        C736   1.351       .  A
C736        C737   1.387       .  A
C736        H739   1.082       .  S
C737        C738   1.386       .  A
C738        H740   1.082       .  S
N741        N742   1.320       .  A
N741        C745   1.355       .  A
N742        C743   1.339       .  A
C743        C744   1.378       .  A
C743        H746   1.082       .  S
C744        C745   1.396       .  A
C744       C2017   1.483       .  S
C745        H747   1.082       .  S
N748        N749   1.327       .  A
N748        C752   1.350       .  A
N748       Cu756   2.110       .  S
N749        C750   1.350       .  A
N749       Cu755   2.097       .  S
C750        C751   1.384       .  A
C750        H753   1.082       .  S
C751        C752   1.386       .  A
C751        C803   1.479       .  S
C752        H754   1.082       .  S
Cu755       N758   2.095       .  S
Cu756       N766   2.108   1_655  S
Cu757       N759   2.052       .  S
Cu757       N765   2.052   1_655  S
N758        N759   1.318       .  A
N758        C762   1.347       .  A
N759        C760   1.342       .  A
C760        C761   1.388       .  A
C760        H763   1.080       .  S
C761        C762   1.398       .  A
C761       C2177   1.499       .  S
C762        H764   1.079       .  S
N765        N766   1.321       .  A
N765        C769   1.340       .  A
N766        C767   1.352       .  A
C767        C768   1.395       .  A
C767        H770   1.082       .  S
C768        C769   1.381       .  A
C768       C1524   1.490       .  S
C769        H771   1.082       .  S
C772       C1504   1.572       .  S
C772       C1517   1.573       .  S
C772       C1527   1.573       .  S
C772       C1547   1.574       .  S
N773        N774   1.321       .  A
N773        C777   1.350       .  A
N773       Cu781   2.094       .  S
N774        C775   1.341       .  A
N774       Cu780   2.063       .  S
C775        C776   1.385       .  A
C775        H778   1.081       .  S
C776        C777   1.393       .  A
C776       C1507   1.491       .  S
C777        H779   1.082       .  S
Cu780       N783   2.062       .  S
Cu781       N791   2.095       .  S
Cu782       N784   2.098       .  S
Cu782       N790   2.099       .  S
N783        N784   1.321       .  A
N783        C787   1.344       .  A
N784        C785   1.348       .  A
C785        C786   1.393       .  A
C785        H788   1.082       .  S
C786        C787   1.383       .  A
C786       C1494   1.486       .  S
C787        H789   1.082       .  S
N790        N791   1.326       .  A
N790        C794   1.349       .  A
N791        C792   1.349       .  A
C792        C793   1.384       .  A
C792        H795   1.082       .  S
C793        C794   1.385       .  A
C793        C797   1.476       .  S
C794        H796   1.082       .  S
C797        N798   1.360       .  A
C797        N802   1.362       .  A
N798        C799   1.360       .  A
C799        N800   1.361       .  A
C799        C847   1.475       .  S
N800        C801   1.362       .  A
C801        N802   1.362       .  A
C803        N804   1.362       .  A
C803        N808   1.362       .  A
N804        C805   1.362       .  A
C805        N806   1.361       .  A
N806        C807   1.362       .  A
C807        N808   1.363       .  A
N809        N810   1.327       .  A
N809        C813   1.350       .  A
N809       Cu817   2.103       .  S
N810        C811   1.349       .  A
N810       Cu816   2.103       .  S
C811        C812   1.384       .  A
C811        H814   1.082       .  S
C812        C813   1.385       .  A
C812       C1255   1.478       .  S
C813        H815   1.082       .  S
Cu816       N819   2.101       .  S
Cu817       N827   2.101       .  S
Cu818       N820   2.056       .  S
Cu818       N826   2.056       .  S
N819        N820   1.319       .  A
N819        C823   1.352       .  A
N820        C821   1.341       .  A
C821        C822   1.384       .  A
C821        H824   1.081       .  S
C822        C823   1.396       .  A
C822       C1474   1.493       .  S
C823        H825   1.081       .  S
N826        N827   1.320       .  A
N826        C830   1.340       .  A
N827        C828   1.353       .  A
C828        C829   1.395       .  A
C828        H831   1.082       .  S
C829        C830   1.382       .  A
C829       C1484   1.491       .  S
C830        H832   1.081       .  S
C833       C1464   1.568       .  S
C833       C1487   1.570       .  S
C833       C1987   1.572       .  S
C833       C2157   1.570       .  S
N834        N835   1.318       .  A
N834        C838   1.338       .  A
N834       Cu842   2.036       .  S
N835        C836   1.352       .  A
N835       Cu841   2.105       .  S
C836        C837   1.399       .  A
C836        H839   1.081       .  S
C837        C838   1.381       .  A
C837       C1637   1.491       .  S
C838        H840   1.081       .  S
Cu841       N844   2.109       .  S
Cu842       N852   2.036       .  S
Cu843       N845   2.102       .  S
Cu843       N851   2.099       .  S
N844        N845   1.329       .  A
N844        C848   1.350       .  A
N845        C846   1.348       .  A
C846        C847   1.382       .  A
C846        H849   1.082       .  S
C847        C848   1.384       .  A
C848        H850   1.082       .  S
N851        N852   1.318       .  A
N851        C855   1.353       .  A
N852        C853   1.336       .  A
C853        C854   1.380       .  A
C853        H856   1.081       .  S
C854        C855   1.397       .  A
C854       C1467   1.487       .  S
C855        H857   1.082       .  S
N858        N859   1.327       .  A
N858        C862   1.352       .  A
N858       Cu866   2.114       .  S
N859        C860   1.348       .  A
N859       Cu865   2.094       .  S
C860        C861   1.382       .  A
C860        H863   1.082       .  S
C861        C862   1.387       .  A
C861        C915   1.479       .  S
C862        H864   1.082       .  S
Cu865       N868   2.091       .  S
Cu866       N876   2.112       .  S
Cu867       N869   2.050       .  S
Cu867       N875   2.048       .  S
N868        N869   1.319       .  A
N868        C872   1.351       .  A
N869        C870   1.339       .  A
C870        C871   1.382       .  A
C870        H873   1.082       .  S
C871        C872   1.394       .  A
C871       C1444   1.485       .  S
C872        H874   1.082       .  S
N875        N876   1.321       .  A
N875        C879   1.340       .  A
N876        C877   1.353       .  A
C877        C878   1.394       .  A
C877        H880   1.082       .  S
C878        C879   1.379       .  A
C878       C1454   1.481       .  S
C879        H881   1.083       .  S
N882        N883   1.319       .  A
N882        C886   1.340       .  A
N882       Cu890   2.054       .  S
N883        C884   1.353       .  A
N883       Cu889   2.109       .  S
C884        C885   1.399       .  A
C884        H887   1.081       .  S
C885        C886   1.385       .  A
C885       C1917   1.499       .  S
C886        H888   1.080       .  S
Cu889       N892   2.111       .  S
Cu890       N900   2.055   1_556  S
Cu891       N893   2.095       .  S
Cu891       N899   2.091   1_556  S
N892        N893   1.327       .  A
N892        C896   1.351       .  A
N893        C894   1.349       .  A
C894        C895   1.383       .  A
C894        H897   1.082       .  S
C895        C896   1.386       .  A
C895        C907   1.478       .  S
C896        H898   1.082       .  S
N899        N900   1.320       .  A
N899        C903   1.350       .  A
N900        C901   1.340       .  A
C901        C902   1.383       .  A
C901        H904   1.081       .  S
C902        C903   1.394       .  A
C902       C1434   1.489       .  S
C903        H905   1.082       .  S
C906       C1424   1.570       .  S
C906       C1437   1.567       .  S
C906       C1447   1.564       .  S
C906       C1477   1.570       .  S
C907        N908   1.361       .  A
C907        N912   1.363       .  A
N908        C909   1.361       .  A
C909        N910   1.364       .  A
N910        C911   1.364       .  A
C911        N912   1.363       .  A
C913        N914   1.362       .  A
C913        N918   1.363       .  A
N914        C915   1.362       .  A
C915        N916   1.363       .  A
N916        C917   1.363       .  A
C917        N918   1.363       .  A
N919        N920   1.326       .  A
N919        C923   1.349       .  A
N919       Cu927   2.102       .  S
N920        C921   1.351       .  A
N920       Cu926   2.105       .  S
C921        C922   1.387       .  A
C921        H924   1.082       .  S
C922        C923   1.384       .  A
C922        C947   1.481       .  S
C923        H925   1.082       .  S
Cu926       N929   2.103       .  S
Cu927       N937   2.101       .  S
Cu928       N930   2.062       .  S
Cu928       N936   2.060       .  S
N929        N930   1.322       .  A
N929        C933   1.352       .  A
N930        C931   1.341       .  A
C931        C932   1.383       .  A
C931        H934   1.082       .  S
C932        C933   1.393       .  A
C932       C1964   1.489       .  S
C933        H935   1.082       .  S
N936        N937   1.320       .  A
N936        C940   1.345       .  A
N937        C938   1.349       .  A
C938        C939   1.394       .  A
C938        H941   1.082       .  S
C939        C940   1.383       .  A
C939       C1417   1.488       .  S
C940        H942   1.082       .  S
C943        N944   1.364       .  A
C943        N948   1.360       .  A
N944        C945   1.364       .  A
C945        N946   1.365       .  A
N946        C947   1.364       .  A
C947        N948   1.361       .  A
C949        N950   1.364       .  A
C949        N954   1.358       .  A
C949        C975   1.478       .  S
N950        C951   1.365       .  A
C951        N952   1.364       .  A
C951       C1104   1.482       .  S
N952        C953   1.362       .  A
C953        N954   1.359       .  A
N955        N956   1.321       .  A
N955        C959   1.353       .  A
N955       Cu963   2.107       .  S
N956        C957   1.340       .  A
N956       Cu962   2.049       .  S
C957        C958   1.379       .  A
C957        H960   1.082       .  S
C958        C959   1.393       .  A
C958       C1404   1.480       .  S
C959        H961   1.082       .  S
Cu962       N965   2.051   1_655  S
Cu963       N973   2.109       .  S
Cu964       N966   2.106   1_655  S
Cu964       N972   2.108       .  S
N965        N966   1.319       .  A
N965        C969   1.340       .  A
N966        C967   1.353       .  A
C967        C968   1.398       .  A
C967        H970   1.082       .  S
C968        C969   1.383       .  A
C968       C1514   1.494       .  S
C969        H971   1.081       .  S
N972        N973   1.328       .  A
N972        C976   1.349       .  A
N973        C974   1.352       .  A
C974        C975   1.386       .  A
C974        H977   1.082       .  S
C975        C976   1.384       .  A
C976        H978   1.082       .  S
C979       C1394   1.576   1_655  S
C979       C1407   1.568       .  S
C979       C1414   1.574       .  S
C979       C1567   1.568   1_655  S
N980        N981   1.320       .  A
N980        C984   1.343       .  A
N980       Cu988   2.060       .  S
N981        C982   1.346       .  A
N981       Cu987   2.081       .  S
C982        C983   1.388       .  A
C982        H985   1.082       .  S
C983        C984   1.382       .  A
C983       C2027   1.473       .  S
C984        H986   1.082       .  S
Cu987       N990   2.081       .  S
Cu988       N998   2.062       .  S
Cu989       N991   2.114       .  S
Cu989       N997   2.113       .  S
N990        N991   1.326       .  A
N990        C994   1.347       .  A
N991        C992   1.351       .  A
C992        C993   1.388       .  A
C992        H995   1.082       .  S
C993        C994   1.380       .  A
C993       C1006   1.475       .  S
C994        H996   1.082       .  S
N997        N998   1.322       .  A
N997       C1001   1.354       .  A
N998        C999   1.342       .  A
C999       C1000   1.381       .  A
C999       H1002   1.082       .  S
C1000      C1001   1.396       .  A
C1000      C1387   1.490       .  S
C1001      H1003   1.082       .  S
C1004      N1005   1.361       .  A
C1004      N1009   1.362       .  A
N1005      C1006   1.361       .  A
C1006      N1007   1.361       .  A
N1007      C1008   1.361       .  A
C1008      N1009   1.362       .  A
C1010      N1011   1.363       .  A
C1010      N1015   1.364       .  A
N1011      C1012   1.363       .  A
C1012      N1013   1.361       .  A
C1012      C1029   1.481       .  S
N1013      C1014   1.361       .  A
C1014      N1015   1.364       .  A
C1014      C1055   1.480       .  S
N1016      N1017   1.322       .  A
N1016      C1020   1.345       .  A
N1016     Cu1024   2.064       .  S
N1017      C1018   1.349       .  A
N1017     Cu1023   2.104       .  S
C1018      C1019   1.392       .  A
C1018      H1021   1.082       .  S
C1019      C1020   1.382       .  A
C1019      C1377   1.485       .  S
C1020      H1022   1.083       .  S
Cu1023     N1026   2.103       .  S
Cu1024     N1034   2.065   1_556  S
Cu1025     N1027   2.094       .  S
Cu1025     N1033   2.093   1_556  S
N1026      N1027   1.325       .  A
N1026      C1030   1.350       .  A
N1027      C1028   1.350       .  A
C1028      C1029   1.386       .  A
C1028      H1031   1.082       .  S
C1029      C1030   1.386       .  A
C1030      H1032   1.082       .  S
N1033      N1034   1.320       .  A
N1033      C1037   1.348       .  A
N1034      C1035   1.343       .  A
C1035      C1036   1.388       .  A
C1035      H1038   1.080       .  S
C1036      C1037   1.395       .  A
C1036      C1427   1.498       .  S
C1037      H1039   1.081       .  S
C1040      C1367   1.570       .  S
C1040      C1374   1.579       .  S
C1040      C1384   1.570   1_554  S
C1040      C1497   1.574       .  S
C1041      C1347   1.568       .  S
C1041      C1354   1.569   1_554  S
C1041      C1864   1.568       .  S
C1041      C2227   1.569       .  S
N1042      N1043   1.318   1_565  A
N1042      C1046   1.339       .  A
N1042     Cu1050   2.034   1_565  S
N1043      C1044   1.354   1_545  A
N1043     Cu1049   2.110       .  S
C1044      C1045   1.397       .  A
C1044      H1047   1.082       .  S
C1045      C1046   1.378       .  A
C1045      C1357   1.486       .  S
C1046      H1048   1.082       .  S
Cu1049     N1052   2.113       .  S
Cu1050     N1060   2.034       .  S
Cu1051     N1053   2.112       .  S
Cu1051     N1059   2.108       .  S
N1052      N1053   1.330       .  A
N1052      C1056   1.350       .  A
N1053      C1054   1.352       .  A
C1054      C1055   1.385       .  A
C1054      H1057   1.082       .  S
C1055      C1056   1.384       .  A
C1056      H1058   1.082       .  S
N1059      N1060   1.319       .  A
N1059      C1063   1.354       .  A
N1060      C1061   1.336       .  A
C1061      C1062   1.377       .  A
C1061      H1064   1.082       .  S
C1062      C1063   1.398       .  A
C1062      C1764   1.486       .  S
C1063      H1065   1.082       .  S
N1066      N1067   1.319       .  A
N1066      C1070   1.354       .  A
N1066     Cu1074   2.114       .  S
N1067      C1068   1.339       .  A
N1067     Cu1073   2.040       .  S
C1068      C1069   1.378       .  A
C1068      H1071   1.082       .  S
C1069      C1070   1.398       .  A
C1069      C1334   1.486       .  S
C1070      H1072   1.082       .  S
Cu1073     N1076   2.038   1_545  S
Cu1074     N1084   2.117       .  S
Cu1075     N1077   2.114   1_545  S
Cu1075     N1083   2.118       .  S
N1076      N1077   1.320       .  A
N1076      C1080   1.337       .  A
N1077      C1078   1.355       .  A
C1078      C1079   1.397       .  A
C1078      H1081   1.082       .  S
C1079      C1080   1.378       .  A
C1079      C1344   1.487       .  S
C1080      H1082   1.082       .  S
N1083      N1084   1.330       .  A
N1083      C1087   1.352       .  A
N1084      C1085   1.351       .  A
C1085      C1086   1.385       .  A
C1085      H1088   1.082       .  S
C1086      C1087   1.386       .  A
C1086      C1188   1.484       .  S
C1087      H1089   1.082       .  S
C1090      C1314   1.568   1_655  S
C1090      C1324   1.575       .  S
C1090      C1817   1.568       .  S
C1090      C2074   1.575   1_655  S
N1091      N1092   1.320       .  A
N1091      C1095   1.344       .  A
N1091     Cu1099   2.054       .  S
N1092      C1093   1.348       .  A
N1092     Cu1098   2.102   1_556  S
C1093      C1094   1.395       .  A
C1093      H1096   1.082       .  S
C1094      C1095   1.382       .  A
C1094      C1327   1.486       .  S
C1095      H1097   1.082       .  S
Cu1098     N1101   2.104       .  S
Cu1099     N1109   2.056   1_556  S
Cu1100     N1102   2.111       .  S
Cu1100     N1108   2.109       .  S
N1101      N1102   1.327       .  A
N1101      C1105   1.350       .  A
N1102      C1103   1.352       .  A
C1103      C1104   1.387       .  A
C1103      H1106   1.082       .  S
C1104      C1105   1.384       .  A
C1105      H1107   1.082       .  S
N1108      N1109   1.321       .  A
N1108      C1112   1.353       .  A
N1109      C1110   1.339       .  A
C1110      C1111   1.382       .  A
C1110      H1113   1.081   1_554  S
C1111      C1112   1.397       .  A
C1111      C1907   1.492       .  S
C1112      H1114   1.082       .  S
N1115      N1116   1.329       .  A
N1115      C1119   1.350       .  A
N1115     Cu1123   2.104       .  S
N1116      C1117   1.352       .  A
N1116     Cu1122   2.119       .  S
C1117      C1118   1.386       .  A
C1117      H1120   1.082       .  S
C1118      C1119   1.384       .  A
C1118      C1192   1.481       .  S
C1119      H1121   1.082       .  S
Cu1122     N1125   2.116       .  S
Cu1123     N1133   2.100       .  S
Cu1124     N1126   2.050       .  S
Cu1124     N1132   2.050   1_554  S
N1125      N1126   1.320       .  A
N1125      C1129   1.355       .  A
N1126      C1127   1.341       .  A
C1127      C1128   1.380       .  A
C1127      H1130   1.082       .  S
C1128      C1129   1.396       .  A
C1128      C1364   1.486       .  S
C1129      H1131   1.082       .  S
N1132      N1133   1.320   1_556  A
N1132      C1136   1.338       .  A
N1133      C1134   1.354   1_554  A
C1134      C1135   1.395       .  A
C1134      H1137   1.082       .  S
C1135      C1136   1.380       .  A
C1135      C1317   1.486       .  S
C1136      H1138   1.082       .  S
C1139      C1297   1.569       .  S
C1139      C1307   1.578   1_545  S
C1139      C1687   1.578       .  S
C1139      C1957   1.572   1_545  S
N1140      N1141   1.323       .  A
N1140      C1144   1.346       .  A
N1140     Cu1148   2.075   1_455  S
N1141      C1142   1.351       .  A
N1141     Cu1147   2.109       .  S
C1142      C1143   1.392       .  A
C1142      H1145   1.081       .  S
C1143      C1144   1.383       .  A
C1143      C2184   1.486       .  S
C1144      H1146   1.083   1_455  S
Cu1147     N1150   2.110       .  S
Cu1148     N1158   2.075       .  S
Cu1149     N1151   2.116       .  S
Cu1149     N1157   2.115   1_455  S
N1150      N1151   1.326       .  A
N1150      C1154   1.352       .  A
N1151      C1152   1.353       .  A
C1152      C1153   1.389       .  A
C1152      H1155   1.082       .  S
C1153      C1154   1.388       .  A
C1153      C1228   1.490       .  S
C1154      H1156   1.082       .  S
N1157      N1158   1.323       .  A
N1157      C1161   1.352       .  A
N1158      C1159   1.346       .  A
C1159      C1160   1.383       .  A
C1159      H1162   1.083       .  S
C1160      C1161   1.394       .  A
C1160      C1304   1.488       .  S
C1161      H1163   1.081       .  S
N1164      N1165   1.322       .  A
N1164      C1168   1.344       .  A
N1164     Cu1172   2.060       .  S
N1165      C1166   1.350       .  A
N1165     Cu1171   2.103       .  S
C1166      C1167   1.391       .  A
C1166      H1169   1.082       .  S
C1167      C1168   1.380       .  A
C1167      C1397   1.478       .  S
C1168      H1170   1.082       .  S
Cu1171     N1174   2.104       .  S
Cu1172     N1182   2.062   1_455  S
Cu1173     N1175   2.103       .  S
Cu1173     N1181   2.102   1_455  S
N1174      N1175   1.327       .  A
N1174      C1178   1.350       .  A
N1175      C1176   1.350       .  A
C1176      C1177   1.385       .  A
C1176      H1179   1.082       .  S
C1177      C1178   1.385       .  A
C1177      C1190   1.479       .  S
C1178      H1180   1.082       .  S
N1181      N1182   1.321       .  A
N1181      C1185   1.352       .  A
N1182      C1183   1.342       .  A
C1183      C1184   1.382       .  A
C1183      H1186   1.082       .  S
C1184      C1185   1.394       .  A
C1184      C1294   1.488       .  S
C1185      H1187   1.082       .  S
C1188      N1189   1.363       .  A
C1188      N1193   1.365       .  A
N1189      C1190   1.363       .  A
C1190      N1191   1.361       .  A
N1191      C1192   1.361       .  A
C1192      N1193   1.364       .  A
N1194      N1195   1.321       .  A
N1194      C1198   1.342       .  A
N1194     Cu1202   2.055       .  S
N1195      C1196   1.351       .  A
N1195     Cu1201   2.104       .  S
C1196      C1197   1.394       .  A
C1196      H1199   1.081       .  S
C1197      C1198   1.380       .  A
C1197      C1647   1.483       .  S
C1198      H1200   1.082       .  S
Cu1201     N1204   2.106       .  S
Cu1202     N1212   2.056       .  S
Cu1203     N1205   2.118       .  S
Cu1203     N1211   2.117       .  S
N1204      N1205   1.328       .  A
N1204      C1208   1.351       .  A
N1205      C1206   1.352       .  A
C1206      C1207   1.387       .  A
C1206      H1209   1.082       .  S
C1207      C1208   1.386       .  A
C1207      C1222   1.484       .  S
C1208      H1210   1.082       .  S
N1211      N1212   1.322       .  A
N1211      C1215   1.355       .  A
N1212      C1213   1.341       .  A
C1213      C1214   1.378       .  A
C1213      H1216   1.082       .  S
C1214      C1215   1.395       .  A
C1214      C1284   1.482       .  S
C1215      H1217   1.082       .  S
C1218      N1219   1.361       .  A
C1218      N1223   1.364       .  A
N1219      C1220   1.361       .  A
C1220      N1221   1.362       .  A
N1221      C1222   1.363       .  A
C1222      N1223   1.364       .  A
C1224      N1225   1.363       .  A
C1224      N1229   1.365       .  A
C1224      C1250   1.486       .  S
N1225      C1226   1.363       .  A
C1226      N1227   1.365       .  A
N1227      C1228   1.366       .  A
C1228      N1229   1.365       .  A
N1230      N1231   1.321       .  A
N1230      C1234   1.355       .  A
N1230     Cu1238   2.120   1_545  S
N1231      C1232   1.339       .  A
N1231     Cu1237   2.054       .  S
C1232      C1233   1.380       .  A
C1232      H1235   1.082       .  S
C1233      C1234   1.396       .  A
C1233      C1584   1.486       .  S
C1234      H1236   1.082       .  S
Cu1237     N1240   2.056   1_545  S
Cu1238     N1248   2.123       .  S
Cu1239     N1241   2.104       .  S
Cu1239     N1247   2.107       .  S
N1240      N1241   1.320       .  A
N1240      C1244   1.343       .  A
N1241      C1242   1.352       .  A
C1242      C1243   1.394       .  A
C1242      H1245   1.081       .  S
C1243      C1244   1.381       .  A
C1243      C1274   1.481       .  S
C1244      H1246   1.082   1_565  S
N1247      N1248   1.328       .  A
N1247      C1251   1.350       .  A
N1248      C1249   1.354       .  A
C1249      C1250   1.390       .  A
C1249      H1252   1.082       .  S
C1250      C1251   1.384       .  A
C1251      H1253   1.082       .  S
C1254      C1277   1.575   1_545  S
C1254      C1287   1.581   1_545  S
C1254      C1337   1.570       .  S
C1254      C1457   1.572       .  S
C1255      N1256   1.361       .  A
C1255      N1260   1.361       .  A
N1256      C1257   1.361       .  A
C1257      N1258   1.364       .  A
N1258      C1259   1.364       .  A
C1259      N1260   1.362       .  A
C1261      N1262   1.360       .  A
C1261      N1266   1.362       .  A
N1262      C1263   1.360       .  A
C1263      N1264   1.361       .  A
N1264      C1265   1.361       .  A
C1265      N1266   1.362       .  A
C1267      N1268   1.358       .  A
C1267      N1272   1.360       .  A
N1268      C1269   1.358       .  A
C1269      N1270   1.364       .  A
N1270      C1271   1.365       .  A
C1271      N1272   1.361       .  A
C1273      C1274   1.405       .  A
C1273      C1278   1.409       .  A
C1273      F1280   1.357       .  S
C1274      C1275   1.395       .  A
C1275      C1276   1.396       .  A
C1275      F1282   1.358       .  S
C1276      C1277   1.431       .  A
C1276      F1281   1.357       .  S
C1277      C1278   1.417       .  A
C1278      F1279   1.356       .  S
C1283      C1284   1.394       .  A
C1283      C1288   1.397       .  A
C1283      F1290   1.359       .  S
C1284      C1285   1.402       .  A
C1285      C1286   1.410       .  A
C1285      F1292   1.357       .  S
C1286      C1287   1.423       .  A
C1286      F1291   1.354       .  S
C1287      C1288   1.433       .  A
C1288      F1289   1.356   1_565  S
C1293      C1294   1.408       .  A
C1293      C1298   1.404       .  A
C1293      F1300   1.358       .  S
C1294      C1295   1.401       .  A
C1295      C1296   1.399       .  A
C1295      F1302   1.357       .  S
C1296      C1297   1.425       .  A
C1296      F1301   1.357       .  S
C1297      C1298   1.418       .  A
C1298      F1299   1.355       .  S
C1303      C1304   1.407       .  A
C1303      C1308   1.410       .  A
C1303      F1310   1.357       .  S
C1304      C1305   1.397       .  A
C1305      C1306   1.397       .  A
C1305      F1312   1.358       .  S
C1306      C1307   1.432       .  A
C1306      F1311   1.357   1_565  S
C1307      C1308   1.418       .  A
C1308      F1309   1.356       .  S
C1313      C1314   1.420       .  A
C1313      C1318   1.399       .  A
C1313      F1320   1.355       .  S
C1314      C1315   1.425       .  A
C1315      C1316   1.403       .  A
C1315      F1322   1.357   1_455  S
C1316      C1317   1.401       .  A
C1316      F1321   1.357       .  S
C1317      C1318   1.405       .  A
C1318      F1319   1.358       .  S
C1323      C1324   1.430       .  A
C1323      C1328   1.394       .  A
C1323      F1330   1.356       .  S
C1324      C1325   1.420       .  A
C1325      C1326   1.408       .  A
C1325      F1332   1.357       .  S
C1326      C1327   1.406       .  A
C1326      F1331   1.358       .  S
C1327      C1328   1.398       .  A
C1328      F1329   1.358       .  S
C1333      C1334   1.398       .  A
C1333      C1338   1.399       .  A
C1333      F1340   1.358       .  S
C1334      C1335   1.408       .  A
C1335      C1336   1.405       .  A
C1335      F1342   1.358       .  S
C1336      C1337   1.418       .  A
C1336      F1341   1.355       .  S
C1337      C1338   1.426       .  A
C1338      F1339   1.357       .  S
C1343      C1344   1.404       .  A
C1343      C1348   1.396       .  A
C1343      F1350   1.358       .  S
C1344      C1345   1.400       .  A
C1345      C1346   1.406       .  A
C1345      F1352   1.358       .  S
C1346      C1347   1.429       .  A
C1346      F1351   1.356       .  S
C1347      C1348   1.418       .  A
C1348      F1349   1.355       .  S
C1353      C1354   1.419       .  A
C1353      C1358   1.399       .  A
C1353      F1360   1.356       .  S
C1354      C1355   1.430       .  A
C1355      C1356   1.403       .  A
C1355      F1362   1.356       .  S
C1356      C1357   1.399       .  A
C1356      F1361   1.358       .  S
C1357      C1358   1.405       .  A
C1358      F1359   1.358       .  S
C1363      C1364   1.404       .  A
C1363      C1368   1.410       .  A
C1363      F1370   1.357       .  S
C1364      C1365   1.401       .  A
C1365      C1366   1.395   1_554  A
C1365      F1372   1.358   1_554  S
C1366      C1367   1.422   1_556  A
C1366      F1371   1.357       .  S
C1367      C1368   1.423       .  A
C1368      F1369   1.355       .  S
C1373      C1374   1.422   1_556  A
C1373      C1378   1.407       .  A
C1373      F1380   1.355       .  S
C1374      C1375   1.432       .  A
C1375      C1376   1.396   1_554  A
C1375      F1382   1.356       .  S
C1376      C1377   1.396       .  A
C1376      F1381   1.358   1_556  S
C1377      C1378   1.404       .  A
C1378      F1379   1.358       .  S
C1383      C1384   1.418       .  A
C1383      C1388   1.404       .  A
C1383      F1390   1.355       .  S
C1384      C1385   1.426       .  A
C1385      C1386   1.402       .  A
C1385      F1392   1.357   1_556  S
C1386      C1387   1.401       .  A
C1386      F1391   1.358       .  S
C1387      C1388   1.408       .  A
C1388      F1389   1.358       .  S
C1393      C1394   1.423       .  A
C1393      C1398   1.405       .  A
C1393      F1400   1.355       .  S
C1394      C1395   1.431   1_455  A
C1395      C1396   1.397   1_655  A
C1395      F1402   1.356       .  S
C1396      C1397   1.395       .  A
C1396      F1401   1.359       .  S
C1397      C1398   1.401       .  A
C1398      F1399   1.358       .  S
C1403      C1404   1.401       .  A
C1403      C1408   1.407       .  A
C1403      F1410   1.358       .  S
C1404      C1405   1.400       .  A
C1405      C1406   1.394       .  A
C1405      F1412   1.358   1_655  S
C1406      C1407   1.422       .  A
C1406      F1411   1.357   1_655  S
C1407      C1408   1.424       .  A
C1408      F1409   1.355       .  S
C1413      C1414   1.430       .  A
C1413      C1418   1.396       .  A
C1413      F1420   1.356   1_655  S
C1414      C1415   1.419       .  A
C1415      C1416   1.406       .  A
C1415      F1422   1.357       .  S
C1416      C1417   1.406       .  A
C1416      F1421   1.358       .  S
C1417      C1418   1.399       .  A
C1418      F1419   1.358       .  S
C1423      C1424   1.423       .  A
C1423      C1428   1.398       .  A
C1423      F1430   1.357       .  S
C1424      C1425   1.422       .  A
C1425      C1426   1.402       .  A
C1425      F1432   1.355       .  S
C1426      C1427   1.410       .  A
C1426      F1431   1.357       .  S
C1427      C1428   1.404       .  A
C1428      F1429   1.356       .  S
C1433      C1434   1.406       .  A
C1433      C1438   1.399       .  A
C1433      F1440   1.358       .  S
C1434      C1435   1.401       .  A
C1435      C1436   1.398       .  A
C1435      F1442   1.357       .  S
C1436      C1437   1.424       .  A
C1436      F1441   1.357       .  S
C1437      C1438   1.423       .  A
C1438      F1439   1.355       .  S
C1443      C1444   1.405       .  A
C1443      C1448   1.398       .  A
C1443      F1450   1.358       .  S
C1444      C1445   1.400       .  A
C1445      C1446   1.399       .  A
C1445      F1452   1.357       .  S
C1446      C1447   1.423       .  A
C1446      F1451   1.356       .  S
C1447      C1448   1.423       .  A
C1448      F1449   1.356       .  S
C1453      C1454   1.402       .  A
C1453      C1458   1.409       .  A
C1453      F1460   1.357       .  S
C1454      C1455   1.399       .  A
C1455      C1456   1.393       .  A
C1455      F1462   1.358       .  S
C1456      C1457   1.423       .  A
C1456      F1461   1.356       .  S
C1457      C1458   1.425       .  A
C1458      F1459   1.354       .  S
C1463      C1464   1.426       .  A
C1463      C1468   1.400       .  A
C1463      F1470   1.357       .  S
C1464      C1465   1.422       .  A
C1465      C1466   1.397       .  A
C1465      F1472   1.354       .  S
C1466      C1467   1.406       .  A
C1466      F1471   1.358       .  S
C1467      C1468   1.400       .  A
C1468      F1469   1.357       .  S
C1473      C1474   1.406       .  A
C1473      C1478   1.399       .  A
C1473      F1480   1.358       .  S
C1474      C1475   1.403       .  A
C1475      C1476   1.404       .  A
C1475      F1482   1.357       .  S
C1476      C1477   1.423       .  A
C1476      F1481   1.357       .  S
C1477      C1478   1.423       .  A
C1478      F1479   1.356       .  S
C1483      C1484   1.407       .  A
C1483      C1488   1.400       .  A
C1483      F1490   1.358       .  S
C1484      C1485   1.401       .  A
C1485      C1486   1.401       .  A
C1485      F1492   1.357       .  S
C1486      C1487   1.426       .  A
C1486      F1491   1.357       .  S
C1487      C1488   1.422       .  A
C1488      F1489   1.354       .  S
C1493      C1494   1.398       .  A
C1493      C1498   1.394       .  A
C1493      F1500   1.358       .  S
C1494      C1495   1.406       .  A
C1495      C1496   1.407       .  A
C1495      F1502   1.358       .  S
C1496      C1497   1.419       .  A
C1496      F1501   1.356       .  S
C1497      C1498   1.431       .  A
C1498      F1499   1.357       .  S
C1503      C1504   1.423       .  A
C1503      C1508   1.400       .  A
C1503      F1510   1.354       .  S
C1504      C1505   1.425       .  A
C1505      C1506   1.400       .  A
C1505      F1512   1.357       .  S
C1506      C1507   1.402       .  A
C1506      F1511   1.357       .  S
C1507      C1508   1.406       .  A
C1508      F1509   1.358       .  S
C1513      C1514   1.401       .  A
C1513      C1518   1.402       .  A
C1513      F1520   1.357       .  S
C1514      C1515   1.407       .  A
C1515      C1516   1.402       .  A
C1515      F1522   1.358       .  S
C1516      C1517   1.423       .  A
C1516      F1521   1.355       .  S
C1517      C1518   1.425       .  A
C1518      F1519   1.357       .  S
C1523      C1524   1.400       .  A
C1523      C1528   1.401       .  A
C1523      F1530   1.357       .  S
C1524      C1525   1.406       .  A
C1525      C1526   1.401       .  A
C1525      F1532   1.358       .  S
C1526      C1527   1.425       .  A
C1526      F1531   1.355       .  S
C1527      C1528   1.425       .  A
C1528      F1529   1.357       .  S
C1533      C1534   1.419       .  A
C1533      C1538   1.408       .  A
C1533      F1540   1.354       .  S
C1534      C1535   1.426       .  A
C1535      C1536   1.398       .  A
C1535      F1542   1.357       .  S
C1536      C1537   1.398       .  A
C1536      F1541   1.358       .  S
C1537      C1538   1.409       .  A
C1538      F1539   1.358       .  S
C1543      C1544   1.405       .  A
C1543      C1548   1.400       .  A
C1543      F1550   1.358       .  S
C1544      C1545   1.402       .  A
C1545      C1546   1.402       .  A
C1545      F1552   1.357       .  S
C1546      C1547   1.426       .  A
C1546      F1551   1.358       .  S
C1547      C1548   1.424       .  A
C1548      F1549   1.354       .  S
C1553      C1554   1.399       .  A
C1553      C1558   1.395       .  A
C1553      F1560   1.358       .  S
C1554      C1555   1.407       .  A
C1555      C1556   1.408       .  A
C1555      F1562   1.357       .  S
C1556      C1557   1.418       .  A
C1556      F1561   1.356       .  S
C1557      C1558   1.430       .  A
C1558      F1559   1.357       .  S
C1563      C1564   1.406       .  A
C1563      C1568   1.401       .  A
C1563      F1570   1.358       .  S
C1564      C1565   1.400       .  A
C1565      C1566   1.402       .  A
C1565      F1572   1.358       .  S
C1566      C1567   1.425       .  A
C1566      F1571   1.357   1_455  S
C1567      C1568   1.419       .  A
C1568      F1569   1.355       .  S
C1573      C1574   1.397       .  A
C1573      C1578   1.393       .  A
C1573      F1580   1.358       .  S
C1574      C1575   1.407       .  A
C1575      C1576   1.408       .  A
C1575      F1582   1.358       .  S
C1576      C1577   1.418       .  A
C1576      F1581   1.357       .  S
C1577      C1578   1.431       .  A
C1578      F1579   1.357       .  S
C1583      C1584   1.404       .  A
C1583      C1588   1.412       .  A
C1583      F1590   1.357       .  S
C1584      C1585   1.401       .  A
C1585      C1586   1.391       .  A
C1585      F1592   1.358       .  S
C1586      C1587   1.422       .  A
C1586      F1591   1.356       .  S
C1587      C1588   1.424       .  A
C1588      F1589   1.355       .  S
C1593      C1594   1.400       .  A
C1593      C1598   1.406       .  A
C1593      F1600   1.358       .  S
C1594      C1595   1.395       .  A
C1595      C1596   1.398       .  A
C1595      F1602   1.359       .  S
C1596      C1597   1.431       .  A
C1596      F1601   1.356       .  S
C1597      C1598   1.424       .  A
C1598      F1599   1.353       .  S
C1603      C1604   1.421       .  A
C1603      C1608   1.401       .  A
C1603      F1610   1.356       .  S
C1604      C1605   1.429       .  A
C1605      C1606   1.401       .  A
C1605      F1612   1.355       .  S
C1606      C1607   1.397       .  A
C1606      F1611   1.358       .  S
C1607      C1608   1.403       .  A
C1608      F1609   1.358       .  S
C1613      C1614   1.412       .  A
C1613      C1618   1.402       .  A
C1613      F1620   1.357       .  S
C1614      C1615   1.403       .  A
C1615      C1616   1.401       .  A
C1615      F1622   1.357       .  S
C1616      C1617   1.425       .  A
C1616      F1621   1.357       .  S
C1617      C1618   1.416       .  A
C1618      F1619   1.355       .  S
C1623      C1624   1.405       .  A
C1623      C1628   1.399       .  A
C1623      F1630   1.358       .  S
C1624      C1625   1.402       .  A
C1625      C1626   1.407       .  A
C1625      F1632   1.358       .  S
C1626      C1627   1.429       .  A
C1626      F1631   1.356       .  S
C1627      C1628   1.420       .  A
C1628      F1629   1.356       .  S
C1633      C1634   1.423       .  A
C1633      C1638   1.399       .  A
C1633      F1640   1.357       .  S
C1634      C1635   1.418       .  A
C1635      C1636   1.401       .  A
C1635      F1642   1.355       .  S
C1636      C1637   1.409       .  A
C1636      F1641   1.358       .  S
C1637      C1638   1.402       .  A
C1638      F1639   1.357       .  S
C1643      C1644   1.418       .  A
C1643      C1648   1.405       .  A
C1643      F1650   1.356       .  S
C1644      C1645   1.431       .  A
C1645      C1646   1.397       .  A
C1645      F1652   1.357       .  S
C1646      C1647   1.397       .  A
C1646      F1651   1.358       .  S
C1647      C1648   1.405       .  A
C1648      F1649   1.358       .  S
C1653      C1654   1.399       .  A
C1653      C1658   1.393       .  A
C1653      F1660   1.359       .  S
C1654      C1655   1.402       .  A
C1655      C1656   1.409       .  A
C1655      F1662   1.357       .  S
C1656      C1657   1.423       .  A
C1656      F1661   1.355       .  S
C1657      C1658   1.423       .  A
C1658      F1659   1.356       .  S
C1663      C1664   1.393       .  A
C1663      C1668   1.392       .  A
C1663      F1670   1.360       .  S
C1664      C1665   1.404       .  A
C1665      C1666   1.413       .  A
C1665      F1672   1.357       .  S
C1666      C1667   1.423       .  A
C1666      F1671   1.356       .  S
C1667      C1668   1.433       .  A
C1668      F1669   1.356       .  S
C1673      C1674   1.400       .  A
C1673      C1678   1.406       .  A
C1673      F1680   1.358       .  S
C1674      C1675   1.394       .  A
C1675      C1676   1.394       .  A
C1675      F1682   1.359       .  S
C1676      C1677   1.430       .  A
C1676      F1681   1.356       .  S
C1677      C1678   1.423       .  A
C1678      F1679   1.355       .  S
C1683      C1684   1.395       .  A
C1683      C1688   1.393       .  A
C1683      F1690   1.359       .  S
C1684      C1685   1.402       .  A
C1685      C1686   1.410       .  A
C1685      F1692   1.357       .  S
C1686      C1687   1.423       .  A
C1686      F1691   1.355       .  S
C1687      C1688   1.431       .  A
C1688      F1689   1.357   1_545  S
C1693      C1694   1.424       .  A
C1693      C1698   1.401       .  A
C1693      F1700   1.357       .  S
C1694      C1695   1.418       .  A
C1695      C1696   1.402       .  A
C1695      F1702   1.355       .  S
C1696      C1697   1.407       .  A
C1696      F1701   1.358       .  S
C1697      C1698   1.402       .  A
C1698      F1699   1.357       .  S
C1703      C1704   1.423       .  A
C1703      C1708   1.395       .  A
C1703      F1710   1.357       .  S
C1704      C1705   1.423       .  A
C1705      C1706   1.406       .  A
C1705      F1712   1.355       .  S
C1706      C1707   1.401       .  A
C1706      F1711   1.357       .  S
C1707      C1708   1.399       .  A
C1708      F1709   1.358       .  S
C1713      C1714   1.430       .  A
C1713      C1718   1.393       .  A
C1713      F1720   1.356       .  S
C1714      C1715   1.422       .  A
C1715      C1716   1.406       .  A
C1715      F1722   1.356       .  S
C1716      C1717   1.402       .  A
C1716      F1721   1.357       .  S
C1717      C1718   1.394       .  A
C1718      F1719   1.359       .  S
C1723      C1724   1.401       .  A
C1723      C1728   1.402       .  A
C1723      F1730   1.358       .  S
C1724      C1725   1.396       .  A
C1725      C1726   1.397       .  A
C1725      F1732   1.358       .  S
C1726      C1727   1.431       .  A
C1726      F1731   1.356       .  S
C1727      C1728   1.420       .  A
C1728      F1729   1.355       .  S
C1733      C1734   1.404       .  A
C1733      C1738   1.391       .  A
C1733      F1740   1.358       .  S
C1734      C1735   1.408       .  A
C1735      C1736   1.414       .  A
C1735      F1742   1.357       .  S
C1736      C1737   1.423       .  A
C1736      F1741   1.354       .  S
C1737      C1738   1.422       .  A
C1738      F1739   1.357       .  S
C1743      C1744   1.402       .  A
C1743      C1748   1.408       .  A
C1743      F1750   1.357       .  S
C1744      C1745   1.404       .  A
C1745      C1746   1.394       .  A
C1745      F1752   1.358       .  S
C1746      C1747   1.421       .  A
C1746      F1751   1.358       .  S
C1747      C1748   1.423       .  A
C1748      F1749   1.354       .  S
C1753      C1754   1.424       .  A
C1753      C1758   1.414       .  A
C1753      F1760   1.355       .  S
C1754      C1755   1.433       .  A
C1755      C1756   1.392       .  A
C1755      F1762   1.356       .  S
C1756      C1757   1.394       .  A
C1756      F1761   1.360       .  S
C1757      C1758   1.404       .  A
C1758      F1759   1.357       .  S
C1763      C1764   1.408       .  A
C1763      C1768   1.399       .  A
C1763      F1770   1.358       .  S
C1764      C1765   1.401       .  A
C1765      C1766   1.401       .  A
C1765      F1772   1.357       .  S
C1766      C1767   1.424       .  A
C1766      F1771   1.357       .  S
C1767      C1768   1.418       .  A
C1768      F1769   1.355       .  S
C1773      C1774   1.393       .  A
C1773      C1778   1.393       .  A
C1773      F1780   1.359       .  S
C1774      C1775   1.404       .  A
C1775      C1776   1.407       .  A
C1775      F1782   1.357       .  S
C1776      C1777   1.419   1_565  A
C1776      F1781   1.356       .  S
C1777      C1778   1.435   1_545  A
C1778      F1779   1.356       .  S
C1783      C1784   1.408       .  A
C1783      C1788   1.405   1_655  A
C1783      F1790   1.358   1_655  S
C1784      C1785   1.399       .  A
C1785      C1786   1.400       .  A
C1785      F1792   1.358       .  S
C1786      C1787   1.427       .  A
C1786      F1791   1.358       .  S
C1787      C1788   1.417   1_655  A
C1788      F1789   1.354       .  S
C1793      C1794   1.399       .  A
C1793      C1798   1.404       .  A
C1793      F1800   1.358       .  S
C1794      C1795   1.394       .  A
C1795      C1796   1.392       .  A
C1795      F1802   1.359       .  S
C1796      C1797   1.429       .  A
C1796      F1801   1.357   1_565  S
C1797      C1798   1.424       .  A
C1798      F1799   1.354       .  S
C1803      C1804   1.405       .  A
C1803      C1808   1.391       .  A
C1803      F1810   1.358       .  S
C1804      C1805   1.409       .  A
C1805      C1806   1.417       .  A
C1805      F1812   1.357       .  S
C1806      C1807   1.423       .  A
C1806      F1811   1.355       .  S
C1807      C1808   1.421       .  A
C1808      F1809   1.356       .  S
C1813      C1814   1.404       .  A
C1813      C1818   1.411       .  A
C1813      F1820   1.357       .  S
C1814      C1815   1.401       .  A
C1815      C1816   1.390       .  A
C1815      F1822   1.358   1_655  S
C1816      C1817   1.421       .  A
C1816      F1821   1.355   1_655  S
C1817      C1818   1.424       .  A
C1818      F1819   1.355       .  S
C1823      C1824   1.407       .  A
C1823      C1828   1.411       .  A
C1823      F1830   1.357       .  S
C1824      C1825   1.406   1_545  A
C1825      C1826   1.385       .  A
C1825      F1832   1.357       .  S
C1826      C1827   1.419   1_565  A
C1826      F1831   1.357       .  S
C1827      C1828   1.422       .  A
C1828      F1829   1.354       .  S
C1833      C1834   1.417       .  A
C1833      C1838   1.400       .  A
C1833      F1840   1.355       .  S
C1834      C1835   1.426       .  A
C1835      C1836   1.400       .  A
C1835      F1842   1.357   1_565  S
C1836      C1837   1.400       .  A
C1836      F1841   1.357       .  S
C1837      C1838   1.407       .  A
C1838      F1839   1.358       .  S
C1843      C1844   1.404       .  A
C1843      C1848   1.393       .  A
C1843      F1850   1.358       .  S
C1844      C1845   1.405       .  A
C1845      C1846   1.410       .  A
C1845      F1852   1.357       .  S
C1846      C1847   1.426       .  A
C1846      F1851   1.355       .  S
C1847      C1848   1.421       .  A
C1848      F1849   1.356       .  S
C1853      C1854   1.406       .  A
C1853      C1858   1.409       .  A
C1853      F1860   1.357       .  S
C1854      C1855   1.395       .  A
C1855      C1856   1.395       .  A
C1855      F1862   1.358       .  S
C1856      C1857   1.433       .  A
C1856      F1861   1.356   1_545  S
C1857      C1858   1.418       .  A
C1858      F1859   1.357       .  S
C1863      C1864   1.426       .  A
C1863      C1868   1.408       .  A
C1863      F1870   1.356       .  S
C1864      C1865   1.420       .  A
C1865      C1866   1.393       .  A
C1865      F1872   1.356   1_554  S
C1866      C1867   1.403       .  A
C1866      F1871   1.358   1_554  S
C1867      C1868   1.404       .  A
C1868      F1869   1.358       .  S
C1873      C1874   1.421       .  A
C1873      C1878   1.409       .  A
C1873      F1880   1.354       .  S
C1874      C1875   1.430       .  A
C1875      C1876   1.398       .  A
C1875      F1882   1.357       .  S
C1876      C1877   1.396       .  A
C1876      F1881   1.359       .  S
C1877      C1878   1.403       .  A
C1878      F1879   1.358       .  S
C1883      C1884   1.427       .  A
C1883      C1888   1.401       .  A
C1883      F1890   1.357       .  S
C1884      C1885   1.419       .  A
C1885      C1886   1.401       .  A
C1885      F1892   1.355       .  S
C1886      C1887   1.406       .  A
C1886      F1891   1.358       .  S
C1887      C1888   1.400       .  A
C1888      F1889   1.358       .  S
C1893      C1894   1.418       .  A
C1893      C1898   1.410       .  A
C1893      F1900   1.356       .  S
C1894      C1895   1.432       .  A
C1895      C1896   1.397       .  A
C1895      F1902   1.357       .  S
C1896      C1897   1.395       .  A
C1896      F1901   1.359       .  S
C1897      C1898   1.405       .  A
C1898      F1899   1.357       .  S
C1903      C1904   1.423   1_556  A
C1903      C1908   1.399       .  A
C1903      F1910   1.356       .  S
C1904      C1905   1.424       .  A
C1905      C1906   1.401       .  A
C1905      F1912   1.356       .  S
C1906      C1907   1.402       .  A
C1906      F1911   1.357       .  S
C1907      C1908   1.407   1_554  A
C1908      F1909   1.358       .  S
C1913      C1914   1.424       .  A
C1913      C1918   1.403       .  A
C1913      F1920   1.356       .  S
C1914      C1915   1.422   1_556  A
C1915      C1916   1.401       .  A
C1915      F1922   1.356       .  S
C1916      C1917   1.410   1_554  A
C1916      F1921   1.357       .  S
C1917      C1918   1.403       .  A
C1918      F1919   1.357       .  S
C1923      C1924   1.403       .  A
C1923      C1928   1.409       .  A
C1923      F1930   1.357       .  S
C1924      C1925   1.394       .  A
C1925      C1926   1.393       .  A
C1925      F1932   1.359       .  S
C1926      C1927   1.431       .  A
C1926      F1931   1.356   1_565  S
C1927      C1928   1.422       .  A
C1928      F1929   1.355       .  S
C1933      C1934   1.405       .  A
C1933      C1938   1.401       .  A
C1933      F1940   1.358       .  S
C1934      C1935   1.400       .  A
C1935      C1936   1.400       .  A
C1935      F1942   1.357       .  S
C1936      C1937   1.426       .  A
C1936      F1941   1.356   1_556  S
C1937      C1938   1.423       .  A
C1938      F1939   1.355       .  S
C1943      C1944   1.422       .  A
C1943      C1948   1.399       .  A
C1943      F1950   1.355       .  S
C1944      C1945   1.425       .  A
C1945      C1946   1.405       .  A
C1945      F1952   1.357       .  S
C1946      C1947   1.403       .  A
C1946      F1951   1.357       .  S
C1947      C1948   1.407       .  A
C1948      F1949   1.358       .  S
C1953      C1954   1.402       .  A
C1953      C1958   1.409       .  A
C1953      F1960   1.358       .  S
C1954      C1955   1.399   1_565  A
C1955      C1956   1.395       .  A
C1955      F1962   1.358       .  S
C1956      C1957   1.424   1_545  A
C1956      F1961   1.357       .  S
C1957      C1958   1.425       .  A
C1958      F1959   1.354       .  S
C1963      C1964   1.401       .  A
C1963      C1968   1.403       .  A
C1963      F1970   1.357       .  S
C1964      C1965   1.404       .  A
C1965      C1966   1.398       .  A
C1965      F1972   1.358       .  S
C1966      C1967   1.425       .  A
C1966      F1971   1.354       .  S
C1967      C1968   1.426       .  A
C1968      F1969   1.357       .  S
C1973      C1974   1.419       .  A
C1973      C1978   1.397       .  A
C1973      F1980   1.355       .  S
C1974      C1975   1.426       .  A
C1975      C1976   1.399       .  A
C1975      F1982   1.357       .  S
C1976      C1977   1.400       .  A
C1976      F1981   1.357       .  S
C1977      C1978   1.408       .  A
C1978      F1979   1.357       .  S
C1983      C1984   1.405       .  A
C1983      C1988   1.401       .  A
C1983      F1990   1.358       .  S
C1984      C1985   1.399       .  A
C1985      C1986   1.400       .  A
C1985      F1992   1.357       .  S
C1986      C1987   1.426       .  A
C1986      F1991   1.357       .  S
C1987      C1988   1.425       .  A
C1988      F1989   1.355       .  S
C1993      C1994   1.404       .  A
C1993      C1998   1.399       .  A
C1993      F2000   1.357       .  S
C1994      C1995   1.408       .  A
C1995      C1996   1.396       .  A
C1995      F2002   1.356       .  S
C1996      C1997   1.422       .  A
C1996      F2001   1.356       .  S
C1997      C1998   1.421       .  A
C1998      F1999   1.358       .  S
C2003      C2004   1.410       .  A
C2003      C2008   1.402       .  A
C2003      F2010   1.357       .  S
C2004      C2005   1.402       .  A
C2005      C2006   1.401       .  A
C2005      F2012   1.357       .  S
C2006      C2007   1.426       .  A
C2006      F2011   1.356       .  S
C2007      C2008   1.421       .  A
C2008      F2009   1.355       .  S
C2013      C2014   1.424       .  A
C2013      C2018   1.409       .  A
C2013      F2020   1.354       .  S
C2014      C2015   1.423       .  A
C2015      C2016   1.395       .  A
C2015      F2022   1.357       .  S
C2016      C2017   1.401       .  A
C2016      F2021   1.358       .  S
C2017      C2018   1.402       .  A
C2018      F2019   1.357       .  S
C2023      C2024   1.424       .  A
C2023      C2028   1.405       .  A
C2023      F2030   1.356       .  S
C2024      C2025   1.431       .  A
C2025      C2026   1.393       .  A
C2025      F2032   1.356       .  S
C2026      C2027   1.394       .  A
C2026      F2031   1.359       .  S
C2027      C2028   1.399       .  A
C2028      F2029   1.358       .  S
C2033      C2034   1.425       .  A
C2033      C2038   1.413       .  A
C2033      F2040   1.354       .  S
C2034      C2035   1.423       .  A
C2035      C2036   1.389       .  A
C2035      F2042   1.355       .  S
C2036      C2037   1.398       .  A
C2036      F2041   1.359       .  S
C2037      C2038   1.404       .  A
C2038      F2039   1.357       .  S
C2043      C2044   1.403       .  A
C2043      C2048   1.402       .  A
C2043      F2050   1.357       .  S
C2044      C2045   1.408       .  A
C2045      C2046   1.402       .  A
C2045      F2052   1.358       .  S
C2046      C2047   1.418       .  A
C2046      F2051   1.355       .  S
C2047      C2048   1.424       .  A
C2048      F2049   1.357       .  S
C2053      C2054   1.405       .  A
C2053      C2058   1.393       .  A
C2053      F2060   1.357       .  S
C2054      C2055   1.405       .  A
C2055      C2056   1.409       .  A
C2055      F2062   1.357       .  S
C2056      C2057   1.427       .  A
C2056      F2061   1.355       .  S
C2057      C2058   1.420       .  A
C2058      F2059   1.356       .  S
C2063      C2064   1.406       .  A
C2063      C2068   1.408       .  A
C2063      F2070   1.357       .  S
C2064      C2065   1.395       .  A
C2065      C2066   1.394       .  A
C2065      F2072   1.358       .  S
C2066      C2067   1.432       .  A
C2066      F2071   1.355       .  S
C2067      C2068   1.420       .  A
C2068      F2069   1.357       .  S
C2073      C2074   1.430   1_655  A
C2073      C2078   1.397   1_655  A
C2073      F2080   1.356       .  S
C2074      C2075   1.422       .  A
C2075      C2076   1.405       .  A
C2075      F2082   1.356       .  S
C2076      C2077   1.402       .  A
C2076      F2081   1.358       .  S
C2077      C2078   1.397       .  A
C2078      F2079   1.358       .  S
C2083      C2084   1.418       .  A
C2083      C2088   1.410       .  A
C2083      F2090   1.356       .  S
C2084      C2085   1.432       .  A
C2085      C2086   1.394       .  A
C2085      F2092   1.357       .  S
C2086      C2087   1.397       .  A
C2086      F2091   1.358       .  S
C2087      C2088   1.407       .  A
C2088      F2089   1.357       .  S
C2093      C2094   1.425       .  A
C2093      C2098   1.398       .  A
C2093      F2100   1.357       .  S
C2094      C2095   1.419       .  A
C2095      C2096   1.400       .  A
C2095      F2102   1.356       .  S
C2096      C2097   1.408       .  A
C2096      F2101   1.357       .  S
C2097      C2098   1.400       .  A
C2098      F2099   1.357       .  S
C2103      C2104   1.425       .  A
C2103      C2108   1.404       .  A
C2103      F2110   1.357       .  S
C2104      C2105   1.421       .  A
C2105      C2106   1.399       .  A
C2105      F2112   1.355       .  S
C2106      C2107   1.409       .  A
C2106      F2111   1.357       .  S
C2107      C2108   1.405       .  A
C2108      F2109   1.357       .  S
C2113      C2114   1.425       .  A
C2113      C2118   1.396       .  A
C2113      F2120   1.355       .  S
C2114      C2115   1.422       .  A
C2115      C2116   1.399       .  A
C2115      F2122   1.357       .  S
C2116      C2117   1.403       .  A
C2116      F2121   1.357       .  S
C2117      C2118   1.405       .  A
C2118      F2119   1.358       .  S
C2123      C2124   1.403       .  A
C2123      C2128   1.405       .  A
C2123      F2130   1.357       .  S
C2124      C2125   1.395       .  A
C2125      C2126   1.393       .  A
C2125      F2132   1.358       .  S
C2126      C2127   1.430       .  A
C2126      F2131   1.356       .  S
C2127      C2128   1.419       .  A
C2128      F2129   1.357       .  S
C2133      C2134   1.400       .  A
C2133      C2138   1.399       .  A
C2133      F2140   1.357       .  S
C2134      C2135   1.407       .  A
C2135      C2136   1.400       .  A
C2135      F2142   1.358       .  S
C2136      C2137   1.423       .  A
C2136      F2141   1.355       .  S
C2137      C2138   1.424       .  A
C2138      F2139   1.357       .  S
C2143      C2144   1.401       .  A
C2143      C2148   1.398       .  A
C2143      F2150   1.358       .  S
C2144      C2145   1.398       .  A
C2145      C2146   1.402       .  A
C2145      F2152   1.358       .  S
C2146      C2147   1.425       .  A
C2146      F2151   1.354       .  S
C2147      C2148   1.422       .  A
C2148      F2149   1.358       .  S
C2153      C2154   1.404       .  A
C2153      C2158   1.398       .  A
C2153      F2160   1.358       .  S
C2154      C2155   1.401       .  A
C2155      C2156   1.400       .  A
C2155      F2162   1.357       .  S
C2156      C2157   1.425       .  A
C2156      F2161   1.357       .  S
C2157      C2158   1.425       .  A
C2158      F2159   1.354       .  S
C2163      C2164   1.401       .  A
C2163      C2168   1.403       .  A
C2163      F2170   1.358       .  S
C2164      C2165   1.398       .  A
C2165      C2166   1.398       .  A
C2165      F2172   1.358       .  S
C2166      C2167   1.428       .  A
C2166      F2171   1.355       .  S
C2167      C2168   1.424       .  A
C2168      F2169   1.355       .  S
C2173      C2174   1.420       .  A
C2173      C2178   1.394       .  A
C2173      F2180   1.357       .  S
C2174      C2175   1.419       .  A
C2175      C2176   1.405       .  A
C2175      F2182   1.355   1_655  S
C2176      C2177   1.413       .  A
C2176      F2181   1.357       .  S
C2177      C2178   1.405       .  A
C2178      F2179   1.355       .  S
C2183      C2184   1.406       .  A
C2183      C2188   1.409       .  A
C2183      F2190   1.357       .  S
C2184      C2185   1.397       .  A
C2185      C2186   1.398       .  A
C2185      F2192   1.358       .  S
C2186      C2187   1.430       .  A
C2186      F2191   1.357       .  S
C2187      C2188   1.417       .  A
C2188      F2189   1.357       .  S
C2193      C2194   1.399       .  A
C2193      C2198   1.397       .  A
C2193      F2200   1.358       .  S
C2194      C2195   1.405   1_556  A
C2195      C2196   1.402       .  A
C2195      F2202   1.358       .  S
C2196      C2197   1.419   1_554  A
C2196      F2201   1.355       .  S
C2197      C2198   1.424       .  A
C2198      F2199   1.356       .  S
C2203      C2204   1.424       .  A
C2203      C2208   1.392       .  A
C2203      F2210   1.356       .  S
C2204      C2205   1.425       .  A
C2205      C2206   1.404       .  A
C2205      F2212   1.354       .  S
C2206      C2207   1.398       .  A
C2206      F2211   1.358       .  S
C2207      C2208   1.398       .  A
C2208      F2209   1.359       .  S
C2213      C2214   1.403       .  A
C2213      C2218   1.404       .  A
C2213      F2220   1.358       .  S
C2214      C2215   1.396       .  A
C2215      C2216   1.399       .  A
C2215      F2222   1.358       .  S
C2216      C2217   1.431       .  A
C2216      F2221   1.356   1_455  S
C2217      C2218   1.420       .  A
C2218      F2219   1.354       .  S
C2223      C2224   1.407   1_554  A
C2223      C2228   1.392       .  A
C2223      F2230   1.357       .  S
C2224      C2225   1.407       .  A
C2225      C2226   1.410       .  A
C2225      F2232   1.357       .  S
C2226      C2227   1.425   1_556  A
C2226      F2231   1.355       .  S
C2227      C2228   1.419       .  A
C2228      F2229   1.356       .  S
