geometry optimzed in LAMMPS
_audit_creation_date              2020-11-30 
_audit_creation_method            'lammps2cif' 
_symmetry_space_group_name_H-M    'P1' 
_symmetry_Int_Tables_number       1 
_symmetry_cell_setting            triclinic 
loop_ 
_symmetry_equiv_pos_as_xyz 
  x,y,z 
_cell_length_a                    48.40932893 
_cell_length_b                    45.461061752116194 
_cell_length_c                    49.47779679999856 
_cell_angle_alpha                 89.17514547045326 
_cell_angle_beta                  89.25168371649976 
_cell_angle_gamma                 90.05110253980308 
loop_ 
_atom_site_label 
_atom_site_type_symbol 
_atom_site_fract_x 
_atom_site_fract_y 
_atom_site_fract_z 
_atom_site_charge 
N1          N  0.49873489  0.99377217  0.47821209    -0.36400
N2          N  0.50148674  0.95143604  0.52213120    -0.57000
N3          N  0.50090789  0.00005427  0.56101658    -0.36400
N4          N  0.49601915  0.04227442  0.51708234    -0.57000
C5          C  0.49487818  0.96870782  0.46422494     0.27100
C6          C  0.49278692  0.01663386  0.46152633     0.27100
C7          C  0.49898290  0.97674448  0.57822676     0.27100
C8          C  0.49585522  0.02469415  0.57540745     0.27100
C9          C  0.50444983  0.93255383  0.50134748     0.35800
C10         C  0.50630046  0.93588489  0.54507743     0.35800
C11         C  0.49871607  0.05807822  0.49387456     0.35800
C12         C  0.49909067  0.06142330  0.53751933     0.35800
C13         C  0.48663923  0.97584591  0.43818849    -0.21700
C14         C  0.48543434  0.00603271  0.43646216    -0.21700
C15         C  0.49295102  0.98672704  0.60403878    -0.21700
C16         C  0.49091123  0.01691518  0.60223777    -0.21700
C17         C  0.51058712  0.90468050  0.51118460    -0.22800
C18         C  0.51183416  0.90677898  0.53882052    -0.22800
C19         C  0.50290269  0.08753027  0.49961692    -0.22800
C20         C  0.50305012  0.08964732  0.52724148    -0.22800
C21         C  0.49997991  0.93967684  0.47377948    -0.18100
C22         C  0.49595834  0.04677594  0.46756060    -0.18100
C23         C  0.49727580  0.05405950  0.56534342    -0.18100
C24         C  0.50435417  0.94696654  0.57171050    -0.18100
H25         H  0.48242168  0.96092799  0.42189502     0.14800
H26         H  0.48021642  0.01871378  0.41857636     0.14800
H27         H  0.49059368  0.97368257  0.62239659     0.14800
H28         H  0.48672536  0.03148738  0.61890668     0.14800
H29         H  0.51362659  0.88484227  0.49968690     0.13100
H30         H  0.51596939  0.88876800  0.55272511     0.13100
H31         H  0.50532757  0.10570269  0.48540416     0.13100
H32         H  0.50573958  0.10969821  0.53844801     0.13100
H33         H  0.50810397  0.99550829  0.49681204     0.26300
H34         H  0.50842778  0.99928238  0.54137644     0.26300
N35         N  0.00019522  0.54729866  0.52186294    -0.36400
N36         N  0.04222216  0.50163271  0.52169327    -0.57000
N37         N  0.99877882  0.45686198  0.52401885    -0.36400
N38         N  0.95695339  0.50279466  0.52283797    -0.57000
C39         C  0.02300049  0.56362848  0.51616056     0.27100
C40         C  0.97789983  0.56414990  0.51615800     0.27100
C41         C  0.02116686  0.43987008  0.51890770     0.27100
C42         C  0.97600394  0.44061900  0.51877423     0.27100
C43         C  0.05884953  0.52530474  0.52460330     0.35800
C44         C  0.05813189  0.47752042  0.52551752     0.35800
C45         C  0.94106570  0.52694282  0.52615525     0.35800
C46         C  0.94025612  0.47921145  0.52663308     0.35800
C47         C  0.01509913  0.59132411  0.50705565    -0.21700
C48         C  0.98669359  0.59163388  0.50698033    -0.21700
C49         C  0.01245653  0.41223400  0.51097940    -0.21700
C50         C  0.98403646  0.41274233  0.51082824    -0.21700
C51         C  0.08555609  0.51618635  0.52996988    -0.22800
C52         C  0.08512792  0.48593251  0.53045932    -0.22800
C53         C  0.91408570  0.51864247  0.53221762    -0.22800
C54         C  0.91357364  0.48840242  0.53249771    -0.22800
C55         C  0.05066397  0.55493613  0.52067233    -0.18100
C56         C  0.94990711  0.55612460  0.52071601    -0.18100
C57         C  0.94816586  0.44973678  0.52214296    -0.18100
C58         C  0.04918402  0.44812078  0.52232957    -0.18100
H59         H  0.02839040  0.60959193  0.50133737     0.14800
H60         H  0.97401482  0.61024791  0.50127518     0.14800
H61         H  0.02519984  0.39351168  0.50590510     0.14800
H62         H  0.97080725  0.39452069  0.50564476     0.14800
H63         H  0.10357222  0.52988218  0.53273446     0.13100
H64         H  0.10277309  0.47176538  0.53368723     0.13100
H65         H  0.89641958  0.53284852  0.53524299     0.13100
H66         H  0.89547734  0.47476948  0.53587738     0.13100
H67         H  0.99986953  0.52720874  0.53207882     0.26300
H68         H  0.99904161  0.47729266  0.53307657     0.26300
N69         N  0.48943377  0.49880153  0.06110328    -0.36400
N70         N  0.53812727  0.49974928  0.02756815    -0.57000
N71         N  0.50335135  0.50062217  0.97919454    -0.36400
N72         N  0.45450988  0.49781930  0.01279948    -0.57000
C73         C  0.50905459  0.49419718  0.08004212     0.27100
C74         C  0.46479147  0.49116732  0.07234365     0.27100
C75         C  0.52822770  0.49430319  0.96802992     0.27100
C76         C  0.48411845  0.49641217  0.96000220     0.27100
C77         C  0.55040248  0.50493664  0.05141117     0.35800
C78         C  0.55781745  0.50309293  0.00826002     0.35800
C79         C  0.43457253  0.49945786  0.03208239     0.35800
C80         C  0.44200222  0.50214911  0.98874919     0.35800
C81         C  0.49666478  0.48393782  0.10374479    -0.21700
C82         C  0.46883568  0.48199852  0.09892685    -0.21700
C83         C  0.52480777  0.48632836  0.94130069    -0.21700
C84         C  0.49697969  0.48780473  0.93620500    -0.21700
C85         C  0.57813953  0.51139314  0.04722785    -0.22800
C86         C  0.58284781  0.51018680  0.01988199    -0.22800
C87         C  0.40915156  0.50427572  0.02015868    -0.22800
C88         C  0.41388542  0.50610641  0.99273647    -0.22800
C89         C  0.53757178  0.50064309  0.07692967    -0.18100
C90         C  0.43858874  0.49445709  0.06006633    -0.18100
C91         C  0.45535623  0.50078623  0.96318490    -0.18100
C92         C  0.55408083  0.49777208  0.98053469    -0.18100
H93         H  0.50647811  0.47880808  0.12275404     0.14800
H94         H  0.45338338  0.47523248  0.11372620     0.14800
H95         H  0.54075490  0.48045933  0.92682020     0.14800
H96         H  0.48731826  0.48298352  0.91716364     0.14800
H97         H  0.59361683  0.51562378  0.06226624     0.13100
H98         H  0.60258507  0.51360315  0.00978238     0.13100
H99         H  0.38919001  0.50594374  0.03011800     0.13100
H100        H  0.39834439  0.50949109  0.97747357     0.13100
H101        H  0.49215098  0.50987150  0.04278245     0.26300
H102        H  0.50008830  0.51043356  0.99775225     0.26300
N103        N  0.00378352  0.50316358  0.05860289    -0.36400
N104        N  0.00197797  0.54662768  0.01589577    -0.57000
N105        N  0.99967980  0.49923968  0.97573172    -0.36400
N106        N  0.99973910  0.45576095  0.01871723    -0.57000
C107        C  0.00083272  0.52778722  0.07353219     0.27100
C108        C  0.99853350  0.47980823  0.07509734     0.27100
C109        C  0.99333641  0.52292148  0.96011291     0.27100
C110        C  0.99362140  0.47476186  0.96153392     0.27100
C111        C  0.00731969  0.56491087  0.03655983     0.35800
C112        C  0.00379979  0.56297324  0.99293191     0.35800
C113        C  0.00372737  0.43940876  0.04134401     0.35800
C114        C  0.00236513  0.43731206  0.99760400     0.35800
C115        C  0.99405183  0.51994058  0.09995218    -0.21700
C116        C  0.99255449  0.48973724  0.10095344    -0.21700
C117        C  0.98353074  0.51335152  0.93549564    -0.21700
C118        C  0.98382164  0.48303354  0.93636189    -0.21700
C119        C  0.01229877  0.59311531  0.02668043    -0.22800
C120        C  0.01000149  0.59191938  0.99908388    -0.22800
C121        C  0.00848426  0.41031510  0.03459779    -0.22800
C122        C  0.00764347  0.40899710  0.00691589    -0.22800
C123        C  0.00559001  0.55700671  0.06429949    -0.18100
C124        C  0.00112667  0.44979392  0.06806989    -0.18100
C125        C  0.99795874  0.44524263  0.97023696    -0.18100
C126        C  0.99760845  0.55286953  0.96675491    -0.18100
H127        H  0.99079861  0.53440686  0.11687491     0.14800
H128        H  0.98809055  0.47664565  0.11891857     0.14800
H129        H  0.97710096  0.52680791  0.91848985     0.14800
H130        H  0.97756495  0.46874374  0.92023839     0.14800
H131        H  0.01648775  0.61267294  0.03816074     0.13100
H132        H  0.01217276  0.61041134  0.98519257     0.13100
H133        H  0.01176754  0.39183292  0.04820879     0.13100
H134        H  0.01008082  0.38930801  0.99508376     0.13100
H135        H  0.01207973  0.50205008  0.03922407     0.26300
H136        H  0.01031425  0.49986537  0.99377987     0.26300
N137        N  0.50196183  0.95467664  0.01698252    -0.36400
N138        N  0.54399789  0.99988032  0.02372453    -0.57000
N139        N  0.50108535  0.04455313  0.02203095    -0.36400
N140        N  0.45894272  0.99930730  0.01687443    -0.57000
C141        C  0.52410789  0.93757677  0.02247670     0.27100
C142        C  0.47928964  0.93725540  0.01844645     0.27100
C143        C  0.52299731  0.06106681  0.02920912     0.27100
C144        C  0.47804919  0.06072079  0.02645109     0.27100
C145        C  0.56076282  0.97638707  0.02063793     0.35800
C146        C  0.56031675  0.02400027  0.02236494     0.35800
C147        C  0.44338383  0.97576727  0.01043509     0.35800
C148        C  0.44291328  0.02337116  0.01340178     0.35800
C149        C  0.51544469  0.90880228  0.02698175    -0.21700
C150        C  0.48725164  0.90857835  0.02432408    -0.21700
C151        C  0.51382913  0.08821351  0.03804304    -0.21700
C152        C  0.48551492  0.08801138  0.03630090    -0.21700
C153        C  0.58796916  0.98559738  0.01778029    -0.22800
C154        C  0.58767663  0.01579114  0.01876552    -0.22800
C155        C  0.41715541  0.98488607  0.00317801    -0.22800
C156        C  0.41684054  0.01501323  0.00508809    -0.22800
C157        C  0.55207328  0.94670289  0.02193026    -0.18100
C158        C  0.45184913  0.94607965  0.01297259    -0.18100
C159        C  0.45076185  0.05243116  0.01981458    -0.18100
C160        C  0.55110422  0.05314316  0.02613944    -0.18100
H161        H  0.52813171  0.88975618  0.03129337     0.14800
H162        H  0.47423507  0.88927485  0.02605432     0.14800
H163        H  0.52625735  0.10651432  0.04460439     0.14800
H164        H  0.47210746  0.10629556  0.04105647     0.14800
H165        H  0.60614818  0.97198046  0.01543522     0.13100
H166        H  0.60559788  0.03002323  0.01744953     0.13100
H167        H  0.39988113  0.97125270  0.99754359     0.13100
H168        H  0.39923434  0.02904095  0.00125747     0.13100
H169        H  0.50261001  0.97613891  0.00971593     0.26300
H170        H  0.50207497  0.02503991  0.01149105     0.26300
Zr171      Zr  0.74879725  0.74115447  0.82427886     2.17500
O172        O  0.77219678  0.75959243  0.86392718    -0.51200
O173        O  0.71707189  0.70711738  0.84556183    -0.74400
O174        O  0.71767397  0.77291899  0.85005151    -0.81200
O175        O  0.80043188  0.68173463  0.80891782    -0.82900
O176        O  0.69819083  0.80552457  0.82075608    -0.78500
O177        O  0.78004737  0.70516630  0.84407048    -0.90200
O178        O  0.68838164  0.69058678  0.81307065    -0.76100
O179        O  0.70783526  0.74890846  0.79928755    -0.85600
O180        O  0.74475289  0.70061303  0.79435097    -0.85300
O181        O  0.75558384  0.78760986  0.80161260    -0.72100
O182        O  0.78989246  0.74168326  0.79671711    -0.84200
Zr183      Zr  0.75095888  0.75541494  0.71737765     2.26400
Zr184      Zr  0.71473675  0.79431460  0.77557930     2.06300
Zr185      Zr  0.78494128  0.70177065  0.76611853     2.10000
Zr186      Zr  0.70398917  0.70898331  0.76926627     1.78800
O187        O  0.83452496  0.69310431  0.76708162    -0.93000
O188        O  0.65594268  0.72482749  0.77025091    -0.40800
O189        O  0.74411709  0.70888716  0.74021470    -0.77400
O190        O  0.70983101  0.75438215  0.74500593    -0.96100
O191        O  0.75502095  0.79563231  0.74740330    -0.89400
O192        O  0.79182756  0.74737618  0.74269407    -0.92300
C193        C  0.69657769  0.69186577  0.83758067     1.01500
C194        C  0.79681355  0.68602316  0.83432135     1.14400
C195        C  0.70148645  0.79459019  0.84456116     1.05200
O196        O  0.66467343  0.79932883  0.77479945    -0.94400
O197        O  0.69985230  0.81560583  0.73327360    -0.90200
O198        O  0.72102658  0.79308215  0.69805575    -0.83300
C199        C  0.70395110  0.81187850  0.70787735     1.11800
O200        O  0.82051463  0.80534331  0.81163560    -0.96400
Zr201      Zr  0.79568509  0.78723773  0.77268070     1.88900
O202        O  0.78470929  0.78794002  0.69578834    -0.73000
O203        O  0.72298376  0.84683279  0.78035283    -0.52300
O204        O  0.79654738  0.84073115  0.77477978    -0.97000
O205        O  0.84386998  0.77160189  0.77067963    -0.54200
O206        O  0.81074160  0.80631886  0.72925616    -0.73600
C207        C  0.80445852  0.80410392  0.70434020     0.98800
O208        O  0.72589989  0.73767895  0.67836242    -0.62400
O209        O  0.77532317  0.64966844  0.76013574    -0.57200
O210        O  0.77879679  0.72164361  0.69081215    -0.93900
O211        O  0.80098923  0.69139882  0.72046263    -0.92300
O212        O  0.70234411  0.65564145  0.76564055    -0.92700
O213        O  0.67870730  0.69100057  0.73058604    -0.91400
C214        C  0.79590433  0.70091786  0.69646228     1.17600
H215        H  0.74370113  0.68206904  0.80408016     0.33600
H216        H  0.69376752  0.75736174  0.73389655     0.44400
H217        H  0.80802541  0.74658001  0.73112662     0.37900
H218        H  0.75724768  0.80305534  0.81468003     0.34400
H219        H  0.64520363  0.70650764  0.77328472     0.26200
H220        H  0.70489265  0.85499322  0.78601771     0.32200
H221        H  0.78210756  0.84738857  0.76209250     0.38100
H222        H  0.71715341  0.65086261  0.75243956     0.32500
H223        H  0.79279230  0.64138787  0.75291602     0.31400
H224        H  0.83655224  0.67151911  0.76554932     0.33100
H225        H  0.84888392  0.77138538  0.75122072     0.32000
H226        H  0.69204128  0.69246255  0.71528846     0.36000
H227        H  0.72766558  0.71599383  0.67919521     0.28800
H228        H  0.75914041  0.75610238  0.87920175     0.33000
H229        H  0.83700732  0.81562834  0.80410234     0.35900
H230        H  0.77369223  0.64136072  0.77869060     0.28500
H231        H  0.70616066  0.74117718  0.68274830     0.41300
H232        H  0.66130403  0.82077452  0.77566718     0.31400
H233        H  0.65382691  0.73568299  0.78735492     0.39000
H234        H  0.84352624  0.75060786  0.77625529     0.30900
H235        H  0.73467887  0.84849193  0.79652155     0.30900
H236        H  0.77258260  0.78124094  0.86141672     0.31200
Zr237      Zr  0.30332121  0.75459489  0.77436820     2.17500
O238        O  0.34884100  0.73446146  0.76385866    -0.51200
O239        O  0.32108165  0.78839480  0.80768719    -0.74400
O240        O  0.32988179  0.78655111  0.74352209    -0.81200
O241        O  0.28733091  0.68929818  0.82051043    -0.82900
O242        O  0.30077848  0.80823840  0.71358099    -0.78500
O243        O  0.32308513  0.71562740  0.80251825    -0.90200
O244        O  0.28554716  0.81684212  0.82214411    -0.76100
O245        O  0.27613828  0.79771040  0.76821928    -0.85600
O246        O  0.27060415  0.75470820  0.81086120    -0.85300
O247        O  0.28264656  0.74960268  0.73068106    -0.72100
O248        O  0.27686783  0.71022263  0.77002844    -0.84200
Zr249      Zr  0.19491224  0.74996962  0.75723316     2.26400
Zr250      Zr  0.25446529  0.79256601  0.72536173     2.06300
Zr251      Zr  0.24374260  0.71102249  0.80625364     2.10000
Zr252      Zr  0.24317948  0.79760396  0.80419120     1.78800
O253        O  0.24027701  0.65800458  0.81331319    -0.93000
O254        O  0.24006345  0.84966052  0.79232765    -0.40800
O255        O  0.21589667  0.75396799  0.80074220    -0.77400
O256        O  0.22103098  0.79453522  0.76142553    -0.96100
O257        O  0.22750378  0.74911128  0.72089387    -0.89400
O258        O  0.22190398  0.70653826  0.76341524    -0.92300
C259        C  0.31108582  0.80953153  0.82171827     1.01500
C260        C  0.31333708  0.69423490  0.81702593     1.14400
C261        C  0.32488681  0.80332808  0.72301904     1.05200
O262        O  0.25712147  0.84594723  0.72151158    -0.94400
O263        O  0.21187145  0.81077435  0.70611078    -0.90200
O264        O  0.17591326  0.78527445  0.72459710    -0.83300
C265        C  0.18592653  0.80530126  0.70865427     1.11800
O266        O  0.29687060  0.68329989  0.71021274    -0.96400
Zr267      Zr  0.25469759  0.70621187  0.72729772     1.88900
O268        O  0.17633356  0.71651239  0.72430685    -0.73000
O269        O  0.25931843  0.78565884  0.67684717    -0.52300
O270        O  0.26008420  0.71141102  0.67841655    -0.97000
O271        O  0.25577418  0.65374167  0.73815478    -0.54200
O272        O  0.21192679  0.68967102  0.70730073    -0.73600
C273        C  0.18624473  0.69664601  0.70877961     0.98800
O274        O  0.15120723  0.77055702  0.77279352    -0.62400
O275        O  0.24086932  0.71953764  0.85470342    -0.57200
O276        O  0.16695911  0.72058918  0.78864130    -0.93900
O277        O  0.19631946  0.69635733  0.81682005    -0.92300
O278        O  0.23799483  0.79610144  0.85326532    -0.92700
O279        O  0.20025448  0.81699027  0.82294691    -0.91400
C280        C  0.17201526  0.70282803  0.80840108     1.17600
H281        H  0.27969516  0.75476114  0.82811925     0.33600
H282        H  0.20919375  0.81147793  0.75935429     0.44400
H283        H  0.21039083  0.68913346  0.76322061     0.37900
H284        H  0.29681728  0.74913183  0.71677944     0.34400
H285        H  0.23834565  0.85974962  0.80986183     0.26200
H286        H  0.24206835  0.77573732  0.67147002     0.32200
H287        H  0.27505696  0.72604080  0.67567282     0.38100
H288        H  0.25602345  0.78928954  0.86018476     0.32500
H289        H  0.22426358  0.73197970  0.85706395     0.31400
H290        H  0.23667254  0.65531322  0.83294958     0.33100
H291        H  0.23687817  0.64884684  0.74462639     0.32000
H292        H  0.18565651  0.80402508  0.81588157     0.36000
H293        H  0.15335265  0.79218660  0.77136850     0.28800
H294        H  0.36220030  0.75050614  0.76708138     0.33000
H295        H  0.29069150  0.66767980  0.69791029     0.35900
H296        H  0.23554845  0.70025854  0.86276357     0.28500
H297        H  0.13756915  0.76543936  0.75890670     0.41300
H298        H  0.24239783  0.85316346  0.73378096     0.31400
H299        H  0.25873689  0.85499857  0.78546211     0.39000
H300        H  0.26726882  0.65214232  0.75452306     0.30900
H301        H  0.25784854  0.80574738  0.66899975     0.30900
H302        H  0.34910609  0.73176628  0.74403792     0.31200
Zr303      Zr  0.74843466  0.25619091  0.82221845     2.17500
O304        O  0.76311543  0.23324974  0.86440917    -0.51200
O305        O  0.72428025  0.29742081  0.84259746    -0.74400
O306        O  0.78950604  0.28143527  0.83958965    -0.81200
O307        O  0.68647401  0.20510935  0.82146964    -0.82900
O308        O  0.81370637  0.29889148  0.80306192    -0.78500
O309        O  0.71495702  0.22858906  0.85007437    -0.90200
O310        O  0.70250774  0.32297620  0.80934469    -0.76100
O311        O  0.75495412  0.29607282  0.79096137    -0.85600
O312        O  0.70645159  0.26106756  0.79778082    -0.85300
O313        O  0.78680327  0.24195942  0.79381298    -0.72100
O314        O  0.74180373  0.21004757  0.79999921    -0.84200
Zr315      Zr  0.74304900  0.24121346  0.71501958     2.26400
Zr316      Zr  0.79224413  0.28171529  0.76190333     2.06300
Zr317      Zr  0.70004269  0.21556226  0.77530550     2.10000
Zr318      Zr  0.71321570  0.30059248  0.76644229     1.78800
O319        O  0.69141862  0.16338696  0.78346174    -0.93000
O320        O  0.73061130  0.35075358  0.76148087    -0.40800
O321        O  0.70503608  0.25532241  0.74355670    -0.77400
O322        O  0.75047284  0.28756797  0.73679572    -0.96100
O323        O  0.78540263  0.23639591  0.73894569    -0.89400
O324        O  0.73721908  0.20139170  0.74635364    -0.92300
C325        C  0.70866182  0.31835843  0.83417258     1.01500
C326        C  0.69426447  0.21170628  0.84524491     1.14400
C327        C  0.80997526  0.29565592  0.82871385     1.05200
O328        O  0.79938000  0.33432308  0.75507577    -0.94400
O329        O  0.80738983  0.28990967  0.71540687    -0.90200
O330        O  0.77628159  0.26902724  0.68734974    -0.83300
C331        C  0.79814942  0.28419161  0.69182372     1.11800
O332        O  0.79935017  0.17241500  0.80939159    -0.96400
Zr333      Zr  0.77919245  0.19700020  0.77031682     1.88900
O334        O  0.76798330  0.20165024  0.69344241    -0.73000
O335        O  0.84138110  0.27015529  0.76004420    -0.52300
O336        O  0.82941010  0.19642581  0.76702113    -0.97000
O337        O  0.76538607  0.14587216  0.77731055    -0.54200
O338        O  0.78793907  0.17439720  0.72678425    -0.73600
C339        C  0.78228816  0.17977610  0.70191483     0.98800
O340        O  0.72185354  0.25996194  0.67380140    -0.62400
O341        O  0.65136079  0.22918341  0.77543071    -0.57200
O342        O  0.70305807  0.21378727  0.69815094    -0.93900
O343        O  0.67919866  0.19686039  0.73490009    -0.92300
O344        O  0.66316276  0.30567247  0.76806627    -0.92700
O345        O  0.69361577  0.32500013  0.72698302    -0.91400
C346        C  0.68287579  0.19929215  0.70924045     1.17600
H347        H  0.69093406  0.26488079  0.80967625     0.33600
H348        H  0.75272969  0.30306093  0.72335847     0.44400
H349        H  0.73298588  0.18332254  0.73723874     0.37900
H350        H  0.80324911  0.23976637  0.80447329     0.34400
H351        H  0.74312069  0.35339333  0.77693459     0.26200
H352        H  0.85087920  0.28918141  0.76271782     0.32200
H353        H  0.83406751  0.17622988  0.76128683     0.38100
H354        H  0.65614367  0.28820763  0.75859736     0.32500
H355        H  0.64122402  0.21052640  0.77283736     0.31400
H356        H  0.67113654  0.16118521  0.78212383     0.33100
H357        H  0.77909513  0.13429346  0.76692695     0.32000
H358        H  0.70133421  0.31422182  0.71136855     0.36000
H359        H  0.72543853  0.28140497  0.67358027     0.28800
H360        H  0.76676332  0.24959536  0.87688178     0.33000
H361        H  0.79426783  0.18497710  0.82486255     0.35900
H362        H  0.64704312  0.23479851  0.79426538     0.28500
H363        H  0.73332737  0.25218082  0.65880893     0.41300
H364        H  0.81970152  0.33676918  0.75426167     0.31400
H365        H  0.74304274  0.35047773  0.74544129     0.39000
H366        H  0.74793429  0.14371269  0.76733263     0.30900
H367        H  0.84499135  0.25864283  0.77676264     0.30900
H368        H  0.78143427  0.22473041  0.86014737     0.31200
Zr369      Zr  0.24386873  0.23667157  0.71626517     2.17500
O370        O  0.25285775  0.25138471  0.66944625    -0.51200
O371        O  0.21392175  0.19725171  0.70055263    -0.74400
O372        O  0.28227227  0.20816902  0.69652477    -0.81200
O373        O  0.19105651  0.29929517  0.72109128    -0.82900
O374        O  0.30684530  0.18897646  0.73138335    -0.78500
O375        O  0.21373600  0.27020782  0.69126670    -0.90200
O376        O  0.19209557  0.17717225  0.73717273    -0.76100
O377        O  0.24826862  0.19783972  0.74876148    -0.85600
O378        O  0.20409287  0.23886043  0.74512317    -0.85300
O379        O  0.28589082  0.24738998  0.73983467    -0.72100
O380        O  0.24454177  0.28444169  0.73659600    -0.84200
Zr381      Zr  0.25094091  0.25774361  0.82331090     2.26400
Zr382      Zr  0.28919859  0.20879419  0.77326875     2.06300
Zr383      Zr  0.20517452  0.28572216  0.76623370     2.10000
Zr384      Zr  0.20884900  0.20041854  0.77770884     1.78800
O385        O  0.20103412  0.33897172  0.76236666    -0.93000
O386        O  0.22252005  0.14917000  0.78381279    -0.40800
O387        O  0.20926125  0.24730171  0.79928182    -0.77400
O388        O  0.24973555  0.20972915  0.80311310    -0.96100
O389        O  0.29040906  0.25586673  0.79413688    -0.89400
O390        O  0.24618676  0.29644473  0.79058631    -0.92300
C391        C  0.19671446  0.17902470  0.71158590     1.01500
C392        C  0.19644357  0.29077030  0.69701078     1.14400
C393        C  0.30204853  0.19233200  0.70609303     1.05200
O394        O  0.28964562  0.15544223  0.77799092    -0.94400
O395        O  0.30655996  0.19720020  0.81778331    -0.90200
O396        O  0.28280561  0.22489909  0.84788022    -0.83300
C397        C  0.30092249  0.20509010  0.84199416     1.11800
O398        O  0.30649245  0.31322450  0.71958892    -0.96400
Zr399      Zr  0.28556729  0.29416541  0.76139376     1.88900
O400        O  0.28188663  0.29691496  0.83818565    -0.73000
O401        O  0.33932420  0.21383154  0.77306387    -0.52300
O402        O  0.33559964  0.28828202  0.76183625    -0.97000
O403        O  0.27425702  0.34574466  0.75295334    -0.54200
O404        O  0.30247254  0.31790760  0.80110072    -0.73600
C405        C  0.29859032  0.31538558  0.82664969     0.98800
O406        O  0.23544146  0.24743368  0.86959895    -0.62400
O407        O  0.15564804  0.27621877  0.76619281    -0.57200
O408        O  0.21189589  0.28523809  0.84316932    -0.93900
O409        O  0.18664097  0.30387885  0.80843486    -0.92300
O410        O  0.15862410  0.20211362  0.78106020    -0.92700
O411        O  0.18693986  0.18236939  0.81934833    -0.91400
C412        C  0.19164286  0.30047869  0.83367160     1.17600
H413        H  0.18733168  0.23675051  0.73493436     0.33600
H414        H  0.25115861  0.19453024  0.81685260     0.44400
H415        H  0.24467276  0.31532756  0.79915163     0.37900
H416        H  0.30163358  0.24716942  0.72765936     0.34400
H417        H  0.22554232  0.14642502  0.80343944     0.26200
H418        H  0.34642284  0.19381144  0.76949548     0.32200
H419        H  0.34304933  0.30799133  0.76595472     0.38100
H420        H  0.15244383  0.20979176  0.76332204     0.32500
H421        H  0.15224187  0.26369232  0.78243268     0.31400
H422        H  0.18090005  0.34266346  0.76164790     0.33100
H423        H  0.26776986  0.35331382  0.77058491     0.32000
H424        H  0.19994524  0.18767199  0.83377321     0.36000
H425        H  0.23483045  0.22571630  0.87139623     0.28800
H426        H  0.25557770  0.23301426  0.65923769     0.33000
H427        H  0.31875663  0.32949482  0.72503194     0.35900
H428        H  0.14708640  0.29530499  0.77073478     0.28500
H429        H  0.25082430  0.25365257  0.88122105     0.41300
H430        H  0.27924175  0.15117353  0.79495110     0.31400
H431        H  0.20562218  0.13770120  0.78014214     0.39000
H432        H  0.25746344  0.34523225  0.74175523     0.30900
H433        H  0.34380900  0.22528843  0.75641346     0.30900
H434        H  0.27117124  0.26102755  0.66970208     0.31200
Zr435      Zr  0.69795791  0.74639936  0.26161799     2.17500
O436        O  0.65536551  0.72003277  0.27303772    -0.51200
O437        O  0.67788203  0.78060276  0.22850462    -0.74400
O438        O  0.66961218  0.77236164  0.29503930    -0.81200
O439        O  0.71725610  0.69118504  0.20761778    -0.82900
O440        O  0.69810618  0.79153934  0.32629384    -0.78500
O441        O  0.68061790  0.70922833  0.23148813    -0.90200
O442        O  0.71160321  0.81252986  0.21481181    -0.76100
O443        O  0.72215623  0.79012282  0.27238260    -0.85600
O444        O  0.72999228  0.75473872  0.22525498    -0.85300
O445        O  0.72024556  0.73581128  0.30383017    -0.72100
O446        O  0.72777929  0.70422995  0.26038853    -0.84200
Zr447      Zr  0.80733279  0.74729658  0.27601814     2.26400
Zr448      Zr  0.74541917  0.77961218  0.31375918     2.06300
Zr449      Zr  0.75988605  0.71310476  0.22413270     2.10000
Zr450      Zr  0.75416730  0.79844354  0.23625034     1.78800
O451        O  0.76530818  0.66102967  0.21454907    -0.93000
O452        O  0.74513252  0.84756501  0.25342041    -0.40800
O453        O  0.78499662  0.75715822  0.23375173    -0.77400
O454        O  0.77759022  0.78949012  0.27761522    -0.96100
O455        O  0.77568034  0.73821423  0.31250707    -0.89400
O456        O  0.78311897  0.70334098  0.26562290    -0.92300
C457        C  0.68682289  0.80268537  0.21429956     1.01500
C458        C  0.69131523  0.69234995  0.21360243     1.14400
C459        C  0.67397619  0.78686515  0.31673112     1.05200
O460        O  0.74326728  0.83209970  0.32267964    -0.94400
O461        O  0.78764549  0.79755065  0.33382623    -0.90200
O462        O  0.82471393  0.77922179  0.31110680    -0.83300
C463        C  0.81378613  0.79541036  0.32949611     1.11800
O464        O  0.71273109  0.66248547  0.31423892    -0.96400
Zr465      Zr  0.75128183  0.69469646  0.30174222     1.88900
O466        O  0.82870284  0.71228968  0.30666237    -0.73000
O467        O  0.73971039  0.76521621  0.36114178    -0.52300
O468        O  0.74237741  0.69245439  0.35030036    -0.97000
O469        O  0.75580798  0.64451994  0.28541415    -0.54200
O470        O  0.79522167  0.68041194  0.32103705    -0.73600
C471        C  0.82016143  0.69007676  0.32072125     0.98800
O472        O  0.84810175  0.77660904  0.26438003    -0.62400
O473        O  0.76222264  0.72700702  0.17638734    -0.57200
O474        O  0.83629415  0.72186524  0.24277656    -0.93900
O475        O  0.80770217  0.70274662  0.21151617    -0.92300
O476        O  0.76514667  0.80338145  0.18825388    -0.92700
O477        O  0.79248350  0.83184883  0.22632535    -0.91400
C478        C  0.83189489  0.70733597  0.22109357     1.17600
H479        H  0.72084558  0.75649352  0.20807482     0.33600
H480        H  0.78817880  0.80694585  0.28140754     0.44400
H481        H  0.79570822  0.68697711  0.26383272     0.37900
H482        H  0.70645301  0.73195155  0.31773730     0.34400
H483        H  0.74583626  0.86063761  0.23725818     0.26200
H484        H  0.73538048  0.78376821  0.37051910     0.32200
H485        H  0.75599259  0.70608995  0.35808382     0.38100
H486        H  0.77883021  0.78769337  0.18466862     0.32500
H487        H  0.76544366  0.70829162  0.16686866     0.31400
H488        H  0.76738353  0.66013090  0.19464222     0.33100
H489        H  0.77540676  0.64239510  0.27988734     0.32000
H490        H  0.80842200  0.82309373  0.23583541     0.36000
H491        H  0.86403544  0.76340299  0.26745128     0.28800
H492        H  0.64021964  0.73421410  0.26987150     0.33000
H493        H  0.72056452  0.64697615  0.32613144     0.35900
H494        H  0.74315357  0.73264097  0.17153127     0.28500
H495        H  0.84744272  0.77948037  0.24452270     0.41300
H496        H  0.73836781  0.83335248  0.34212179     0.31400
H497        H  0.72540746  0.84740311  0.25900359     0.39000
H498        H  0.74554266  0.64444974  0.26822753     0.30900
H499        H  0.72222015  0.75390826  0.36204566     0.30900
H500        H  0.65569098  0.71691939  0.29289395     0.31200
Zr501      Zr  0.25051620  0.76012723  0.31855683     2.17500
O502        O  0.26118751  0.73965987  0.36289692    -0.51200
O503        O  0.22359992  0.80052124  0.33700519    -0.74400
O504        O  0.28840533  0.78756343  0.33843126    -0.81200
O505        O  0.19435369  0.70202996  0.31521139    -0.82900
O506        O  0.31346215  0.80825808  0.30392831    -0.78500
O507        O  0.21849370  0.72910927  0.34479298    -0.90200
O508        O  0.20719471  0.82758407  0.30202864    -0.76100
O509        O  0.25707596  0.80037893  0.28773231    -0.85600
O510        O  0.21016281  0.76242772  0.29166877    -0.85300
O511        O  0.29186380  0.74860697  0.29323120    -0.72100
O512        O  0.24865155  0.71345563  0.29652626    -0.84200
Zr513      Zr  0.25403708  0.74462037  0.21213315     2.26400
Zr514      Zr  0.29728371  0.78859442  0.26140459     2.06300
Zr515      Zr  0.20810093  0.71629443  0.26948840     2.10000
Zr516      Zr  0.21712619  0.80210351  0.26042768     1.78800
O517        O  0.19720845  0.66444792  0.27556747    -0.93000
O518        O  0.23360014  0.85135388  0.24854237    -0.40800
O519        O  0.21300931  0.75607088  0.23763039    -0.77400
O520        O  0.25720099  0.79156688  0.23353172    -0.96100
O521        O  0.29482452  0.74283635  0.23848087    -0.89400
O522        O  0.24826954  0.70477069  0.24332622    -0.92300
C523        C  0.21031594  0.82265057  0.32740385     1.01500
C524        C  0.20030519  0.70946977  0.33935936     1.14400
C525        C  0.30811618  0.80397584  0.32921439     1.05200
O526        O  0.30306376  0.84125930  0.25344354    -0.94400
O527        O  0.31567948  0.79664162  0.21584352    -0.90200
O528        O  0.29033492  0.76983238  0.18660602    -0.83300
C529        C  0.31017270  0.78749513  0.19201313     1.11800
O530        O  0.30898907  0.67809944  0.30834850    -0.96400
Zr531      Zr  0.28892904  0.70313236  0.26945735     1.88900
O532        O  0.28005087  0.70502475  0.19218067    -0.73000
O533        O  0.34659834  0.77806940  0.26316731    -0.52300
O534        O  0.33913328  0.70634368  0.27093772    -0.97000
O535        O  0.27681985  0.65124045  0.27452351    -0.54200
O536        O  0.30285008  0.68214454  0.22632470    -0.73600
C537        C  0.29660648  0.68541935  0.20129321     0.98800
O538        O  0.23537137  0.76636782  0.17089052    -0.62400
O539        O  0.15951666  0.73020778  0.26923759    -0.57200
O540        O  0.21896383  0.71320487  0.19258289    -0.93900
O541        O  0.19248229  0.69534408  0.22738092    -0.92300
O542        O  0.16729556  0.80732913  0.26555182    -0.92700
O543        O  0.19286151  0.82045868  0.22079772    -0.91400
C544        C  0.19911347  0.69721582  0.20217865     1.17600
H545        H  0.19381846  0.76548189  0.30270023     0.33600
H546        H  0.25962543  0.80693165  0.21995710     0.44400
H547        H  0.24584302  0.68644694  0.23403121     0.37900
H548        H  0.30756150  0.74761976  0.30510722     0.34400
H549        H  0.21728936  0.86418644  0.25108508     0.26200
H550        H  0.35566231  0.79740057  0.26025632     0.32200
H551        H  0.34512420  0.70928164  0.25188259     0.38100
H552        H  0.15957674  0.78910190  0.25796469     0.32500
H553        H  0.14987176  0.71284471  0.26205219     0.31400
H554        H  0.21419201  0.65563011  0.28307949     0.33100
H555        H  0.29263232  0.64052613  0.26646883     0.32000
H556        H  0.20684554  0.82013013  0.20603102     0.36000
H557        H  0.21516582  0.76730005  0.17415674     0.28800
H558        H  0.26386443  0.75667376  0.37485130     0.33000
H559        H  0.30845136  0.69283312  0.32287955     0.35900
H560        H  0.15383687  0.73070493  0.28852798     0.28500
H561        H  0.24133640  0.78719588  0.17104193     0.41300
H562        H  0.32117414  0.84605287  0.26134687     0.31400
H563        H  0.24605838  0.85662936  0.26342270     0.39000
H564        H  0.26148402  0.64790226  0.26189421     0.30900
H565        H  0.35030385  0.77285664  0.28227860     0.30900
H566        H  0.27965729  0.73069595  0.36055921     0.31200
Zr567      Zr  0.69535011  0.24792464  0.26286778     2.17500
O568        O  0.64899907  0.26122450  0.27826543    -0.51200
O569        O  0.67846741  0.21523878  0.22828312    -0.74400
O570        O  0.67390214  0.28574510  0.23390235    -0.81200
O571        O  0.70312247  0.19333945  0.32213504    -0.82900
O572        O  0.70820724  0.31353884  0.21500449    -0.78500
O573        O  0.67137268  0.21575161  0.29540789    -0.90200
O574        O  0.71541342  0.19285461  0.20863204    -0.76100
O575        O  0.72715336  0.25317644  0.22599983    -0.85600
O576        O  0.72522652  0.20615789  0.26466974    -0.85300
O577        O  0.71881993  0.29352470  0.27073506    -0.72100
O578        O  0.71763543  0.24924001  0.30594127    -0.84200
Zr579      Zr  0.80408507  0.25952135  0.27848789     2.26400
Zr580      Zr  0.75149567  0.29784415  0.23402550     2.06300
Zr581      Zr  0.74853236  0.20825537  0.30684390     2.10000
Zr582      Zr  0.75732681  0.21196712  0.22832356     1.78800
O583        O  0.74700327  0.20149497  0.35575575    -0.93000
O584        O  0.76251939  0.22171506  0.17997118    -0.40800
O585        O  0.78100909  0.21362973  0.27047938    -0.77400
O586        O  0.78249558  0.25685063  0.23498459    -0.96100
O587        O  0.77381920  0.30063306  0.27674320    -0.89400
O588        O  0.77237362  0.25310709  0.31522700    -0.92300
C589        C  0.68937155  0.19737319  0.21135864     1.01500
C590        C  0.67819906  0.19840963  0.31499419     1.14400
C591        C  0.68267982  0.30673887  0.21823697     1.05200
O592        O  0.76119759  0.29458618  0.18575299    -0.94400
O593        O  0.79557320  0.32155175  0.22546846    -0.90200
O594        O  0.82719716  0.29552521  0.24933925    -0.83300
C595        C  0.82041182  0.31586727  0.23244942     1.11800
O596        O  0.69914682  0.30830272  0.33596575    -0.96400
Zr597      Zr  0.74195581  0.29405566  0.31323830     1.88900
O598        O  0.82045495  0.29254748  0.31358225    -0.73000
O599        O  0.74343619  0.35068678  0.23309537    -0.52300
O600        O  0.73371992  0.34654732  0.30733350    -0.97000
O601        O  0.74110424  0.28322307  0.36171881    -0.54200
O602        O  0.78315181  0.31656093  0.33046795    -0.73600
C603        C  0.80920450  0.31196932  0.32887179     0.98800
O604        O  0.85059719  0.24466976  0.26502671    -0.62400
O605        O  0.74788489  0.15543269  0.29917581    -0.57200
O606        O  0.82722661  0.22081557  0.30403851    -0.93900
O607        O  0.79328236  0.19178697  0.32220561    -0.92300
O608        O  0.76070861  0.15890317  0.23477905    -0.92700
O609        O  0.79996097  0.19193791  0.20948048    -0.91400
C610        C  0.81874712  0.19882834  0.31848330     1.17600
H611        H  0.71501461  0.18802581  0.26341246     0.33600
H612        H  0.79620640  0.25895098  0.22077164     0.44400
H613        H  0.78189672  0.25198639  0.33217377     0.37900
H614        H  0.70602128  0.30958733  0.27025089     0.34400
H615        H  0.75962596  0.20239464  0.17143729     0.26200
H616        H  0.75679451  0.35877443  0.24600111     0.32200
H617        H  0.74902590  0.35349124  0.29540559     0.38100
H618        H  0.76038637  0.15088141  0.21628922     0.32500
H619        H  0.76582004  0.15125451  0.29020303     0.31400
H620        H  0.74950082  0.18008358  0.35878862     0.33100
H621        H  0.76063692  0.28088767  0.36704632     0.32000
H622        H  0.81461412  0.19929843  0.22141495     0.36000
H623        H  0.85062237  0.24437738  0.24501537     0.28800
H624        H  0.63685243  0.25828667  0.26258179     0.33000
H625        H  0.70431889  0.32416952  0.34845239     0.35900
H626        H  0.74948954  0.14638857  0.31741144     0.28500
H627        H  0.86293709  0.26115143  0.26974697     0.41300
H628        H  0.76526588  0.31504741  0.17982142     0.31400
H629        H  0.74596029  0.23329086  0.17508071     0.39000
H630        H  0.73322482  0.26316519  0.36332373     0.30900
H631        H  0.75021617  0.35741872  0.21507093     0.30900
H632        H  0.64946881  0.28277842  0.28089083     0.31200
N633        N  0.00048177  0.99856100  0.47280332    -0.36400
N634        N  0.95139731  0.00069594  0.50650164    -0.57000
N635        N  0.98608025  0.99905709  0.55473553    -0.36400
N636        N  0.03510475  0.99940639  0.52078130    -0.57000
C637        C  0.98117499  0.00401073  0.45386941     0.27100
C638        C  0.02537087  0.00445894  0.46133138     0.27100
C639        C  0.96111415  0.00410091  0.56629375     0.27100
C640        C  0.00545060  0.00273527  0.57392011     0.27100
C641        C  0.93935447  0.99558887  0.48253444     0.35800
C642        C  0.93158251  0.99686016  0.52565146     0.35800
C643        C  0.05491152  0.99563044  0.50169090     0.35800
C644        C  0.04741968  0.99554261  0.54491805     0.35800
C645        C  0.99393640  0.01299440  0.42991147    -0.21700
C646        C  0.02182890  0.01330287  0.43460396    -0.21700
C647        C  0.96459574  0.01048451  0.59339402    -0.21700
C648        C  0.99255910  0.00964312  0.59818793    -0.21700
C649        C  0.91163752  0.98892054  0.48639187    -0.22800
C650        C  0.90668594  0.98977375  0.51372612    -0.22800
C651        C  0.08003663  0.98972932  0.51375060    -0.22800
C652        C  0.07528290  0.98959724  0.54112483    -0.22800
C653        C  0.95255636  0.99913125  0.45714262    -0.18100
C654        C  0.05123149  0.00007533  0.47368944    -0.18100
C655        C  0.03430559  0.99884445  0.57037244    -0.18100
C656        C  0.93522187  0.00096564  0.55362743    -0.18100
H657        H  0.98423176  0.01839423  0.41089445     0.14800
H658        H  0.03765308  0.01889684  0.41975964     0.14800
H659        H  0.94862607  0.01484538  0.60830857     0.14800
H660        H  0.00226579  0.01347529  0.61740484     0.14800
H661        H  0.89647210  0.98437046  0.47111538     0.13100
H662        H  0.88694046  0.98582818  0.52364421     0.13100
H663        H  0.09984752  0.98635203  0.50390119     0.13100
H664        H  0.09069267  0.98591309  0.55646137     0.13100
H665        H  0.99716417  0.98796608  0.49126602     0.26300
H666        H  0.98934886  0.99048943  0.53570292     0.26300
C667        C  0.11141682  0.97916693  0.43141967     0.80400
N668        N  0.11973665  0.00600504  0.42196178    -0.77900
C669        C  0.10626014  0.03086298  0.42938790     0.82800
N670        N  0.08438687  0.02868694  0.44666983    -0.77900
C671        C  0.07604177  0.00204957  0.45636700     0.82900
N672        N  0.08940851  0.97725927  0.44863499    -0.79600
Zr673      Zr  0.30144146  0.24082159  0.26140133     2.17500
O674        O  0.34578972  0.25993531  0.27593134    -0.51200
O675        O  0.31868524  0.20785340  0.22704499    -0.74400
O676        O  0.32454108  0.20502315  0.29059330    -0.81200
O677        O  0.28953098  0.30058101  0.21034555    -0.82900
O678        O  0.29241961  0.18361233  0.31848030    -0.78500
O679        O  0.32432870  0.27341079  0.22805674    -0.90200
O680        O  0.28171146  0.18393445  0.20991912    -0.76100
O681        O  0.27127413  0.19939022  0.26555185    -0.85600
O682        O  0.26930769  0.24476466  0.22550823    -0.85300
O683        O  0.27926854  0.24464726  0.30510429    -0.72100
O684        O  0.27860705  0.28718289  0.26810138    -0.84200
Zr685      Zr  0.19274653  0.25407455  0.27816462     2.26400
Zr686      Zr  0.24784639  0.20401275  0.30805633     2.06300
Zr687      Zr  0.24611929  0.29022395  0.23238206     2.10000
Zr688      Zr  0.23943471  0.20362724  0.22971071     1.78800
O689        O  0.25193533  0.34261572  0.24006451    -0.93000
O690        O  0.23520171  0.15078059  0.23741982    -0.40800
O691        O  0.21519335  0.24933173  0.23488870    -0.77400
O692        O  0.21539256  0.20732157  0.27218473    -0.96100
O693        O  0.22433134  0.24940554  0.31456260    -0.89400
O694        O  0.22336746  0.29498251  0.27493575    -0.92300
C695        C  0.30773861  0.18919101  0.21119700     1.01500
C696        C  0.31489810  0.29282559  0.21138032     1.14400
C697        C  0.31727945  0.18718998  0.30984460     1.05200
O698        O  0.23978029  0.15148249  0.30323817    -0.94400
O699        O  0.20419380  0.19491463  0.33110961    -0.90200
O700        O  0.17002488  0.22112164  0.31069056    -0.83300
C701        C  0.17884138  0.20232542  0.32815234     1.11800
O702        O  0.29956636  0.30539379  0.32850840    -0.96400
Zr703      Zr  0.25501994  0.28997281  0.31105157     1.88900
O704        O  0.17590530  0.28776412  0.31240081    -0.73000
O705        O  0.25706811  0.19883951  0.35618662    -0.52300
O706        O  0.25728589  0.27995565  0.35950506    -0.97000
O707        O  0.26064811  0.34315036  0.30710106    -0.54200
O708        O  0.21302838  0.30914914  0.33170463    -0.73600
C709        C  0.18687335  0.30510453  0.32950959     0.98800
O710        O  0.14827363  0.23765101  0.26107932    -0.62400
O711        O  0.23879790  0.29776641  0.18411947    -0.57200
O712        O  0.16932618  0.28912904  0.24834020    -0.93900
O713        O  0.20164583  0.30841558  0.21950782    -0.92300
O714        O  0.23647661  0.21005424  0.18088454    -0.92700
O715        O  0.19596875  0.18505684  0.21246046    -0.91400
C716        C  0.17681311  0.30580240  0.22830640     1.17600
H717        H  0.27841603  0.24465783  0.20803270     0.33600
H718        H  0.20208358  0.19151640  0.27383813     0.44400
H719        H  0.21348613  0.31341006  0.27583016     0.37900
H720        H  0.29291784  0.24291599  0.31911224     0.34400
H721        H  0.23723790  0.14216982  0.21922707     0.26200
H722        H  0.24501783  0.21357073  0.36493716     0.32200
H723        H  0.27090289  0.26385399  0.36140906     0.38100
H724        H  0.22214980  0.22530869  0.17826266     0.32500
H725        H  0.24714313  0.31717690  0.17970293     0.31400
H726        H  0.26008125  0.35049236  0.22299104     0.33100
H727        H  0.24352339  0.35028625  0.29850885     0.32000
H728        H  0.18160204  0.19358239  0.22442035     0.36000
H729        H  0.15065648  0.23744211  0.24116202     0.28800
H730        H  0.35955077  0.24502262  0.27035413     0.33000
H731        H  0.29520739  0.31922011  0.34323718     0.35900
H732        H  0.25098766  0.28331302  0.17513084     0.28500
H733        H  0.14679127  0.21657383  0.26614616     0.41300
H734        H  0.24471815  0.14277126  0.32098571     0.31400
H735        H  0.25233639  0.14510274  0.24686358     0.39000
H736        H  0.27520323  0.34604861  0.29306696     0.30900
H737        H  0.24895746  0.17959578  0.36160466     0.30900
H738        H  0.34518624  0.25862416  0.29592103     0.31200
C739        C  0.02670203  0.40079022  0.12220007     0.80400
N740        N  0.00298530  0.39417714  0.13564652    -0.77900
C741        C  0.97834588  0.40400035  0.12661576     0.82800
N742        N  0.97759551  0.42105834  0.10387520    -0.77900
C743        C  0.00143055  0.42795112  0.09032677     0.82900
N744        N  0.02602467  0.41774442  0.09948139    -0.79600
C745        C  0.39686866  0.10654217  0.00014020     0.80400
N746        N  0.38857583  0.11606999  0.02478194    -0.77900
C747        C  0.40035814  0.10560361  0.04772766     0.82800
N748        N  0.42039401  0.08486350  0.04585697    -0.77900
C749        C  0.42896460  0.07514459  0.02129895     0.82900
N750        N  0.41743567  0.08627298  0.99836545    -0.79600
C751        C  0.47413114  0.09867276  0.41361946     0.80400
N752        N  0.49895700  0.10909160  0.40484822    -0.77900
C753        C  0.52266290  0.09879122  0.41554252     0.82800
N754        N  0.52172894  0.07811010  0.43551709    -0.77900
C755        C  0.49692092  0.06791334  0.44477832     0.82900
N756        N  0.47312935  0.07819507  0.43387070    -0.79600
C757        C  0.91085665  0.97126651  0.40074731     0.80400
N758        N  0.90206403  0.99694934  0.38944001    -0.77900
C759        C  0.90984808  0.02331723  0.39944480     0.82800
N760        N  0.92676573  0.02391420  0.42110001    -0.77900
C761        C  0.93546000  0.99842691  0.43275756     0.82900
N762        N  0.92747426  0.97223132  0.42262818    -0.79600
C763        C  0.59939687  0.10995464  0.05096880     0.80400
N764        N  0.58182237  0.08656253  0.05052757    -0.77900
C765        C  0.57189834  0.07689370  0.02659149     0.82800
N766        N  0.57967404  0.09045824  0.00302067    -0.77900
C767        C  0.59662357  0.11421033  0.00350591     0.82900
N768        N  0.60618118  0.12365332  0.02738228    -0.79600
C769        C  0.58539802  0.52546474  0.13040413     0.80400
N770        N  0.56751850  0.52587969  0.10938641    -0.77900
C771        C  0.55527281  0.50053177  0.10121020     0.82800
N772        N  0.56114266  0.47459903  0.11398950    -0.77900
C773        C  0.57858926  0.47397023  0.13528890     0.82900
N774        N  0.59065620  0.49936400  0.14296484    -0.79600
C775        C  0.89601685  0.40083788  0.49128671     0.80400
N776        N  0.91639129  0.42116451  0.49413071    -0.77900
C777        C  0.92599460  0.42751761  0.51918441     0.82800
N778        N  0.91546732  0.41315497  0.54139398    -0.77900
C779        C  0.89504561  0.39286540  0.53865200     0.82900
N780        N  0.88548060  0.38728026  0.51368381    -0.79600
C781        C  0.37935797  0.51411570  0.10451521     0.80400
N782        N  0.37372554  0.48747984  0.11612381    -0.77900
C783        C  0.38773746  0.46301427  0.10860354     0.82800
N784        N  0.40743766  0.46513175  0.08897022    -0.77900
C785        C  0.41387316  0.49164253  0.07769448     0.82900
N786        N  0.39983557  0.51603839  0.08544917    -0.79600
C787        C  0.03825700  0.61295265  0.10778736     0.80400
N788        N  0.01568547  0.62466364  0.12010535    -0.77900
C789        C  0.98983925  0.61482207  0.11504149     0.82800
N790        N  0.98653499  0.59221891  0.09755134    -0.77900
C791        C  0.00896643  0.58048841  0.08464769     0.82900
N792        N  0.03469628  0.59099815  0.08977573    -0.79600
C793        C  0.40328233  0.89228287  0.98369864     0.80400
N794        N  0.42175324  0.91463990  0.98593539    -0.77900
C795        C  0.43070603  0.92276969  0.01069278     0.82800
N796        N  0.42153146  0.90815315  0.03326998    -0.77900
C797        C  0.40328708  0.88561069  0.03117253     0.82900
N798        N  0.39421280  0.87815123  0.00644907    -0.79600
C799        C  0.46937610  0.88456648  0.42829731     0.80400
N800        N  0.47223132  0.90592249  0.44696033    -0.77900
C801        C  0.49776697  0.91525398  0.45422130     0.82800
N802        N  0.52076639  0.90329934  0.44239172    -0.77900
C803        C  0.51804296  0.88161529  0.42378699     0.82900
N804        N  0.49239586  0.87247117  0.41724105    -0.79600
C805        C  0.09565047  0.61392892  0.54684249     0.80400
N806        N  0.07801521  0.59068506  0.54582470    -0.77900
C807        C  0.07193817  0.57839040  0.52166323     0.82800
N808        N  0.08355782  0.58947352  0.49839568    -0.77900
C809        C  0.10032729  0.61348774  0.49928540     0.82900
N810        N  0.10591844  0.62561131  0.52344730    -0.79600
C811        C  0.59788733  0.88860348  0.04928342     0.80400
N812        N  0.58042622  0.91193878  0.04786723    -0.77900
C813        C  0.57336523  0.92355133  0.02343120     0.82800
N814        N  0.58379302  0.91182173  0.00032470    -0.77900
C815        C  0.60130887  0.88851789  0.00159733     0.82900
N816        N  0.60809871  0.87715105  0.02607566    -0.79600
C817        C  0.09993231  0.38981324  0.54010462     0.80400
N818        N  0.10742843  0.38062080  0.51512197    -0.77900
C819        C  0.09669226  0.39306678  0.49249982     0.82800
N820        N  0.07800643  0.41512166  0.49519541    -0.77900
C821        C  0.07050434  0.42490194  0.52005728     0.82900
N822        N  0.08169530  0.41242173  0.54257869    -0.79600
C823        C  0.97358143  0.38719466  0.92326955     0.80400
N824        N  0.99826723  0.37579080  0.91507584    -0.77900
C825        C  0.02262628  0.38643315  0.92424300     0.82800
N826        N  0.02225797  0.40925464  0.94172638    -0.77900
C827        C  0.99787601  0.42137509  0.94987152     0.82900
N828        N  0.97361022  0.41011764  0.94079839    -0.79600
C829        C  0.08719812  0.02009749  0.62006448     0.80400
N830        N  0.09257777  0.99349396  0.63157154    -0.77900
C831        C  0.07815182  0.96913250  0.62479538     0.82800
N832        N  0.05785063  0.97146363  0.60621084    -0.77900
C833        C  0.05209159  0.99794592  0.59447782     0.82900
N834        N  0.06704695  0.02214833  0.60117079    -0.79600
C835        C  0.51908389  0.11444334  0.61063593     0.80400
N836        N  0.49405974  0.12396921  0.61964805    -0.77900
C837        C  0.47017743  0.11170561  0.61111995     0.82800
N838        N  0.47137374  0.08891300  0.59365743    -0.77900
C839        C  0.49622071  0.07854114  0.58489214     0.82900
N840        N  0.51999688  0.09139831  0.59331335    -0.79600
C841        C  0.40884886  0.47905228  0.90766398     0.80400
N842        N  0.42442408  0.47793545  0.93033933    -0.77900
C843        C  0.43831225  0.50222020  0.93848165     0.82800
N844        N  0.43624970  0.52789227  0.92407961    -0.77900
C845        C  0.42124490  0.52901197  0.90098921     0.82900
N846        N  0.40809994  0.50438162  0.89281244    -0.79600
C847        C  0.87351706  0.02359555  0.59316628     0.80400
N848        N  0.86358110  0.99692720  0.60129874    -0.77900
C849        C  0.87702400  0.97182089  0.59459352     0.82800
N850        N  0.90051454  0.97355025  0.57949898    -0.77900
C851        C  0.91038246  0.99998894  0.57096167     0.82900
N852        N  0.89696958  0.02508386  0.57780247    -0.79600
C853        C  0.96510425  0.60850893  0.92196409     0.80400
N854        N  0.98762441  0.61953280  0.90868692    -0.77900
C855        C  0.01335194  0.60900330  0.91357659     0.82800
N856        N  0.01639728  0.58677882  0.93197281    -0.77900
C857        C  0.99401103  0.57538098  0.94527484     0.82900
N858        N  0.96843964  0.58623507  0.94022535    -0.79600
C859        C  0.53854079  0.89678538  0.62035809     0.80400
N860        N  0.53450741  0.91728813  0.60061203    -0.77900
C861        C  0.50853769  0.92595172  0.59429371     0.82800
N862        N  0.48651164  0.91403309  0.60773430    -0.77900
C863        C  0.49028545  0.89329508  0.62742574     0.82900
N864        N  0.51637444  0.88483436  0.63357749    -0.79600
C865        C  0.61655400  0.47200567  0.94432378     0.80400
N866        N  0.62674716  0.49800979  0.93494871    -0.77900
C867        C  0.61319832  0.52357018  0.93922991     0.82800
N868        N  0.58906731  0.52305329  0.95331850    -0.77900
C869        C  0.57886402  0.49728618  0.96325862     0.82900
N870        N  0.59248960  0.47165920  0.95873509    -0.79600
C871        C  0.90141033  0.60949834  0.48964910     0.80400
N872        N  0.92124490  0.58863166  0.49261069    -0.77900
C873        C  0.92859382  0.57923676  0.51773873     0.82800
N874        N  0.91647524  0.59125009  0.53997361    -0.77900
C875        C  0.89718046  0.61281282  0.53715017     0.82900
N876        N  0.88970593  0.62139262  0.51195367    -0.79600
C877        C  0.16340335  0.36158626  0.38051171    -0.01800
C878        C  0.13835395  0.34947014  0.39019675     0.06800
C879        C  0.12767986  0.32436713  0.37798654    -0.07800
C880        C  0.14239366  0.31016076  0.35738246     0.04200
C881        C  0.16843085  0.32129903  0.34853915    -0.15000
C882        C  0.17815014  0.34756741  0.35985140    -0.08400
C883        C  0.12559454  0.35975643  0.41576006     0.05100
C884        C  0.11087010  0.38626648  0.41629468    -0.09500
C885        C  0.10063085  0.39745023  0.44077435     0.00100
C886        C  0.10539716  0.38197028  0.46542303     0.00000
C887        C  0.11974733  0.35504159  0.46441044    -0.13000
C888        C  0.12973220  0.34394588  0.44000828     0.00500
C889        C  0.08611898  0.42516898  0.43979191     0.39800
C890        C  0.14499773  0.31663728  0.44037197     0.36400
C891        C  0.17517114  0.38730505  0.39275286     0.36100
C892        C  0.13108932  0.28303214  0.34744943     0.36900
N893        N  0.07443132  0.44735870  0.43895672    -0.43900
N894        N  0.15722721  0.29477558  0.44042373    -0.44400
N895        N  0.12181148  0.26128435  0.33973330    -0.41700
N896        N  0.18442577  0.40788791  0.40275004    -0.43200
H897        H  0.19783603  0.35670106  0.35319866     0.13000
H898        H  0.10850493  0.31490075  0.38568438     0.09500
H899        H  0.10780335  0.39847253  0.39757804     0.10600
H900        H  0.12351387  0.34251632  0.48279702     0.16400
C901        C  0.37714921  0.38123953  0.11856778    -0.01800
C902        C  0.37102836  0.37907061  0.14647161     0.06800
C903        C  0.37175859  0.40445600  0.16219777    -0.07800
C904        C  0.37724352  0.43201331  0.15039268     0.04200
C905        C  0.38244807  0.43439302  0.12226206    -0.15000
C906        C  0.38296010  0.40874735  0.10675657    -0.08400
C907        C  0.35993978  0.35172350  0.15918391     0.05100
C908        C  0.37380206  0.33845394  0.18098056    -0.09500
C909        C  0.36079316  0.31670782  0.19716847     0.00100
C910        C  0.33334939  0.30835550  0.19161086     0.00000
C911        C  0.32094132  0.31949747  0.16800191    -0.13000
C912        C  0.33355799  0.34144567  0.15230624     0.00500
C913        C  0.37544142  0.30485758  0.22006178     0.39800
C914        C  0.31760347  0.35534513  0.13119242     0.36400
C915        C  0.37680505  0.35569313  0.10157016     0.36100
C916        C  0.37765747  0.45728765  0.16774175     0.36900
N917        N  0.38749911  0.29531779  0.23822271    -0.43900
N918        N  0.30476497  0.36663923  0.11443278    -0.44400
N919        N  0.37789976  0.47746397  0.18173917    -0.41700
N920        N  0.37628456  0.33527311  0.08788849    -0.43200
H921        H  0.38716929  0.41028758  0.08519535     0.13000
H922        H  0.36691608  0.40287091  0.18364342     0.09500
H923        H  0.39421026  0.34623216  0.18619268     0.10600
H924        H  0.30015953  0.31276569  0.16292334     0.16400
C925        C  0.42701311  0.14987252  0.37567309    -0.01800
C926        C  0.40423763  0.13168533  0.37036870     0.06800
C927        C  0.40356724  0.10281314  0.38072778    -0.07800
C928        C  0.42565889  0.09164416  0.39573545     0.04200
C929        C  0.44883219  0.10971081  0.40054259    -0.15000
C930        C  0.44895577  0.13884638  0.39069053    -0.08400
C931        C  0.38083579  0.14286430  0.35436776     0.05100
C932        C  0.38464313  0.14830532  0.32659090    -0.09500
C933        C  0.36379183  0.16154316  0.31131481     0.00100
C934        C  0.33897654  0.17038486  0.32414957     0.00000
C935        C  0.33486169  0.16361693  0.35177914    -0.13000
C936        C  0.35540752  0.14966812  0.36680769     0.00500
C937        C  0.36787465  0.16458073  0.28244362     0.39800
C938        C  0.35024464  0.14305553  0.39507277     0.36400
C939        C  0.42837918  0.17993811  0.36589337     0.36100
C940        C  0.42453760  0.06127884  0.40464882     0.36900
N941        N  0.37087116  0.16669898  0.25925108    -0.43900
N942        N  0.34619492  0.13737726  0.41765528    -0.44400
N943        N  0.42359433  0.03692699  0.41175227    -0.41700
N944        N  0.42964373  0.20401106  0.35804785    -0.43200
H945        H  0.46648423  0.15303612  0.39444130     0.13000
H946        H  0.38594073  0.08888052  0.37667763     0.09500
H947        H  0.40401485  0.14228584  0.31690187     0.10600
H948        H  0.31575966  0.16979735  0.36188340     0.16400
C949        C  0.36213420  0.17782800  0.15700604    -0.01800
C950        C  0.35628339  0.14895959  0.14882409     0.06800
C951        C  0.33678862  0.13210912  0.16337182    -0.07800
C952        C  0.32183678  0.14420509  0.18486722     0.04200
C953        C  0.32619374  0.17382745  0.19194983    -0.15000
C954        C  0.34714967  0.19001750  0.17851780    -0.08400
C955        C  0.36771926  0.13715953  0.12332427     0.05100
C956        C  0.39524108  0.12772361  0.12194566    -0.09500
C957        C  0.40644131  0.11682272  0.09777608     0.00100
C958        C  0.38989357  0.11568931  0.07436528     0.00000
C959        C  0.36227573  0.12505847  0.07611470    -0.13000
C960        C  0.35113043  0.13554239  0.10024807     0.00500
C961        C  0.43502909  0.10779291  0.09763960     0.39800
C962        C  0.32263939  0.14495698  0.10075903     0.36400
C963        C  0.38220008  0.19582331  0.14257571     0.36100
C964        C  0.30248503  0.12555712  0.19946720     0.36900
N965        N  0.45792931  0.10051296  0.09791570    -0.43900
N966        N  0.29979884  0.15243630  0.10121900    -0.44400
N967        N  0.28728800  0.11019884  0.21113827    -0.41700
N968        N  0.39830593  0.21014490  0.13094547    -0.43200
H969        H  0.35080779  0.21274184  0.18384918     0.13000
H970        H  0.33262385  0.10971920  0.15729861     0.09500
H971        H  0.40796391  0.12895460  0.13978008     0.10600
H972        H  0.34915479  0.12409148  0.05855092     0.16400
C973        C  0.10973086  0.32400908  0.19382074    -0.01800
C974        C  0.11608172  0.35114903  0.18107512     0.06800
C975        C  0.14165287  0.36441008  0.18537191    -0.07800
C976        C  0.16143255  0.35049355  0.20137209     0.04200
C977        C  0.15553838  0.32273387  0.21359696    -0.15000
C978        C  0.12940744  0.31005265  0.21000545    -0.08400
C979        C  0.09595033  0.36638883  0.16369893     0.05100
C980        C  0.08211871  0.39096093  0.17389973    -0.09500
C981        C  0.06052839  0.40382284  0.15953109     0.00100
C982        C  0.05286445  0.39219199  0.13446393     0.00000
C983        C  0.06791249  0.36889804  0.12337249    -0.13000
C984        C  0.08944123  0.35588529  0.13786380     0.00500
C985        C  0.04587631  0.42832885  0.17120773     0.39800
C986        C  0.10404324  0.33128400  0.12634450     0.36400
C987        C  0.08311451  0.31022551  0.19059217     0.36100
C988        C  0.18735509  0.36557335  0.20507658     0.36900
N989        N  0.03407490  0.44797668  0.18045074    -0.43900
N990        N  0.11581290  0.31154739  0.11722401    -0.44400
N991        N  0.20802297  0.37791996  0.20780177    -0.41700
N992        N  0.06174299  0.29929779  0.18792600    -0.43200
H993        H  0.12460256  0.28883852  0.21922145     0.13000
H994        H  0.14624347  0.38557759  0.17593195     0.09500
H995        H  0.08743155  0.39927233  0.19360844     0.10600
H996        H  0.06191182  0.35992004  0.10411925     0.16400
C997        C  0.09822122  0.10772181  0.39973379    -0.01800
C998        C  0.12525356  0.11399907  0.39061949     0.06800
C999        C  0.14630781  0.09348156  0.39515901    -0.07800
C1000       C  0.14077479  0.06655123  0.40809268     0.04200
C1001       C  0.11354525  0.05972815  0.41681600    -0.15000
C1002       C  0.09257117  0.08079057  0.41283530    -0.08400
C1003       C  0.13248225  0.14138080  0.37562764     0.05100
C1004       C  0.14845384  0.16258662  0.38856636    -0.09500
C1005       C  0.16160304  0.18500094  0.37358752     0.00100
C1006       C  0.15868844  0.18632784  0.34528683     0.00000
C1007       C  0.14050497  0.16695272  0.33275871    -0.13000
C1008       C  0.12767281  0.14424519  0.34765318     0.00500
C1009       C  0.17897122  0.20564809  0.38738297     0.39800
C1010       C  0.11221143  0.12237587  0.33332799     0.36400
C1011       C  0.07610081  0.12854873  0.39577421     0.36100
C1012       C  0.16367621  0.04685435  0.41265696     0.36900
N1013       N  0.19278244  0.22235244  0.39836384    -0.43900
N1014       N  0.10005830  0.10478821  0.32167667    -0.44400
N1015       N  0.18219725  0.03126916  0.41624133    -0.41700
N1016       N  0.05842181  0.14530647  0.39256455    -0.43200
H1017       H  0.07156494  0.07598592  0.41939718     0.13000
H1018       H  0.16719228  0.09849200  0.38829826     0.09500
H1019       H  0.15203155  0.16051330  0.41010592     0.10600
H1020       H  0.13847268  0.16775336  0.31094740     0.16400
C1021       C  0.86584068  0.33050909  0.37795716    -0.01800
C1022       C  0.85587729  0.35689638  0.38919830     0.06800
C1023       C  0.83310316  0.37080216  0.37748509    -0.07800
C1024       C  0.81880633  0.35760574  0.35640750     0.04200
C1025       C  0.82698744  0.32954100  0.34697869    -0.15000
C1026       C  0.85131476  0.31696749  0.35716724    -0.08400
C1027       C  0.86681848  0.36840280  0.41496141     0.05100
C1028       C  0.87866183  0.39661672  0.41586061    -0.09500
C1029       C  0.88845734  0.40797159  0.44028623     0.00100
C1030       C  0.88658683  0.39076846  0.46434713     0.00000
C1031       C  0.87425803  0.36274901  0.46316468    -0.13000
C1032       C  0.86409412  0.35178325  0.43908953     0.00500
C1033       C  0.89914398  0.43762507  0.44015836     0.39800
C1034       C  0.84985221  0.32382037  0.43997294     0.36400
C1035       C  0.89050196  0.31656489  0.38806040     0.36100
C1036       C  0.79585308  0.37351285  0.34493347     0.36900
N1037       N  0.90756910  0.46146420  0.43998032    -0.43900
N1038       N  0.83837668  0.30147665  0.44074007    -0.44400
N1039       N  0.77760362  0.38651484  0.33576952    -0.41700
N1040       N  0.91028068  0.30551367  0.39626397    -0.43200
H1041       H  0.85831683  0.29585002  0.34982772     0.13000
H1042       H  0.82576231  0.39145947  0.38559782     0.09500
H1043       H  0.88008381  0.40983636  0.39747429     0.10600
H1044       H  0.87221590  0.34914686  0.48126319     0.16400
C1045       C  0.61860420  0.35265713  0.20510153    -0.01800
C1046       C  0.62565078  0.36741773  0.18065535     0.06800
C1047       C  0.65042781  0.36011702  0.16742095    -0.07800
C1048       C  0.66869790  0.33957690  0.17864110     0.04200
C1049       C  0.66222200  0.32546798  0.20369253    -0.15000
C1050       C  0.63668047  0.33169605  0.21622592    -0.08400
C1051       C  0.60945986  0.39291114  0.17007721     0.05100
C1052       C  0.60766112  0.41825692  0.18580354    -0.09500
C1053       C  0.59645745  0.44438289  0.17540126     0.00100
C1054       C  0.58683236  0.44565938  0.14846230     0.00000
C1055       C  0.58713513  0.41972661  0.13328272    -0.13000
C1056       C  0.59849693  0.39359196  0.14375888     0.00500
C1057       C  0.59529103  0.46949101  0.19295442     0.39800
C1058       C  0.59918084  0.36793016  0.12692553     0.36400
C1059       C  0.59318295  0.35907157  0.21938727     0.36100
C1060       C  0.69415041  0.33395286  0.16406557     0.36900
N1061       N  0.59441699  0.48960550  0.20701689    -0.43900
N1062       N  0.59972802  0.34742905  0.11333417    -0.44400
N1063       N  0.71455817  0.32972992  0.15232035    -0.41700
N1064       N  0.57283848  0.36423386  0.23090016    -0.43200
H1065       H  0.63135356  0.32119628  0.23541543     0.13000
H1066       H  0.65611784  0.37151922  0.14875004     0.09500
H1067       H  0.61601276  0.41794038  0.20604660     0.10600
H1068       H  0.57965645  0.42013990  0.11271777     0.16400
C1069       C  0.63371129  0.18521048  0.16004274    -0.01800
C1070       C  0.63928064  0.15624811  0.15179265     0.06800
C1071       C  0.65940864  0.13970559  0.16519783    -0.07800
C1072       C  0.67518580  0.15218610  0.18556799     0.04200
C1073       C  0.67075319  0.18178590  0.19287531    -0.15000
C1074       C  0.64926620  0.19765197  0.18063207    -0.08400
C1075       C  0.62785966  0.14455415  0.12655679     0.05100
C1076       C  0.63918849  0.15505196  0.10218290    -0.09500
C1077       C  0.63107277  0.14358794  0.07752261     0.00100
C1078       C  0.61016547  0.12156017  0.07684853     0.00000
C1079       C  0.59904199  0.11092029  0.10158066    -0.13000
C1080       C  0.60798650  0.12196751  0.12630946     0.00500
C1081       C  0.64569674  0.15435781  0.05370129     0.39800
C1082       C  0.59661320  0.10980854  0.15114585     0.36400
C1083       C  0.61278623  0.20283556  0.14704709     0.36100
C1084       C  0.69573796  0.13405950  0.19851267     0.36900
N1085       N  0.65769143  0.16303231  0.03481900    -0.43900
N1086       N  0.58758563  0.09992857  0.17105680    -0.44400
N1087       N  0.71200628  0.11914083  0.20875806    -0.41700
N1088       N  0.59599148  0.21700889  0.13672398    -0.43200
H1089       H  0.64554020  0.22031658  0.18618409     0.13000
H1090       H  0.66367750  0.11740846  0.15883146     0.09500
H1091       H  0.65515729  0.17182236  0.10253819     0.10600
H1092       H  0.58331116  0.09393297  0.10171899     0.16400
C1093       C  0.84802289  0.14625555  0.36974951    -0.01800
C1094       C  0.87008744  0.13356275  0.35527509     0.06800
C1095       C  0.87797694  0.14547477  0.33003858    -0.07800
C1096       C  0.86276908  0.16847227  0.31822714     0.04200
C1097       C  0.83920280  0.17958217  0.33186953    -0.15000
C1098       C  0.83280456  0.16902099  0.35801714    -0.08400
C1099       C  0.88202792  0.10531526  0.36461120     0.05100
C1100       C  0.86554846  0.08009412  0.36292799    -0.09500
C1101       C  0.87394644  0.05334229  0.37433316     0.00100
C1102       C  0.89995499  0.05121454  0.38696794     0.00000
C1103       C  0.91664394  0.07655912  0.38823436    -0.13000
C1104       C  0.90776972  0.10354920  0.37736960     0.00500
C1105       C  0.85431873  0.02938856  0.37472460     0.39800
C1106       C  0.92473556  0.12935409  0.38056414     0.36400
C1107       C  0.83974469  0.13503690  0.39608980     0.36100
C1108       C  0.87040633  0.17827643  0.29127488     0.36900
N1109       N  0.83829839  0.01046939  0.37524319    -0.43900
N1110       N  0.93823468  0.15009972  0.38326671    -0.44400
N1111       N  0.87679564  0.18582813  0.26964657    -0.41700
N1112       N  0.83323953  0.12579308  0.41713742    -0.43200
H1113       H  0.81501948  0.17767727  0.36883641     0.13000
H1114       H  0.89497267  0.13563543  0.31890159     0.09500
H1115       H  0.84538093  0.08171770  0.35369460     0.10600
H1116       H  0.93654151  0.07539970  0.39800724     0.16400
C1117       C  0.64192675  0.15964453  0.37367918    -0.01800
C1118       C  0.61628554  0.15224995  0.36249268     0.06800
C1119       C  0.61069256  0.16060903  0.33571094    -0.07800
C1120       C  0.63034350  0.17567289  0.31981364     0.04200
C1121       C  0.65611499  0.18320684  0.33094031    -0.15000
C1122       C  0.66146904  0.17508833  0.35796450    -0.08400
C1123       C  0.59467872  0.13620965  0.37828982     0.05100
C1124       C  0.58258024  0.14978961  0.40082174    -0.09500
C1125       C  0.55968004  0.13713971  0.41405689     0.00100
C1126       C  0.54903604  0.11022686  0.40505922     0.00000
C1127       C  0.56169437  0.09604251  0.38324502    -0.13000
C1128       C  0.58435167  0.10885700  0.36974874     0.00500
C1129       C  0.54643271  0.15286922  0.43580532     0.39800
C1130       C  0.59630297  0.09394086  0.34683226     0.36400
C1131       C  0.64908203  0.15070195  0.40083155     0.36100
C1132       C  0.62386130  0.18177244  0.29188793     0.36900
N1133       N  0.53561951  0.16550487  0.45309974    -0.43900
N1134       N  0.60589420  0.08217866  0.32837117    -0.44400
N1135       N  0.61865624  0.18650436  0.26948092    -0.41700
N1136       N  0.65499969  0.14347296  0.42251899    -0.43200
H1137       H  0.68112999  0.18061030  0.36686762     0.13000
H1138       H  0.59089999  0.15503940  0.32709930     0.09500
H1139       H  0.59019683  0.17098967  0.40722312     0.10600
H1140       H  0.55320917  0.07550282  0.37613056     0.16400
C1141       C  0.88950562  0.33145101  0.19945442    -0.01800
C1142       C  0.88660958  0.36084648  0.19054950     0.06800
C1143       C  0.86214493  0.37607629  0.19626261    -0.07800
C1144       C  0.84045594  0.36232940  0.21058830     0.04200
C1145       C  0.84310710  0.33261781  0.21911125    -0.15000
C1146       C  0.86789707  0.31767759  0.21362853    -0.08400
C1147       C  0.90885105  0.37573623  0.17486830     0.05100
C1148       C  0.90541820  0.38068097  0.14706900    -0.09500
C1149       C  0.92730904  0.39134324  0.13089138     0.00100
C1150       C  0.95316852  0.39698190  0.14270889     0.00000
C1151       C  0.95586736  0.39362644  0.17085625    -0.13000
C1152       C  0.93399160  0.38322546  0.18694177     0.00500
C1153       C  0.92304887  0.39463758  0.10218755     0.39800
C1154       C  0.93795342  0.37999104  0.21571660     0.36400
C1155       C  0.91414199  0.31466215  0.19364811     0.36100
C1156       C  0.81636202  0.37966498  0.21703826     0.36900
N1157       N  0.91956590  0.39735888  0.07919017    -0.43900
N1158       N  0.94122636  0.37748306  0.23876167    -0.44400
N1159       N  0.79736997  0.39407797  0.22217060    -0.41700
N1160       N  0.93383279  0.30108947  0.18911502    -0.43200
H1161       H  0.87018747  0.29482535  0.21980314     0.13000
H1162       H  0.86010298  0.39881288  0.18963922     0.09500
H1163       H  0.88591829  0.37512682  0.13785666     0.10600
H1164       H  0.97537647  0.39860578  0.18032970     0.16400
C1165       C  0.14444269  0.62102241  0.43569279    -0.01800
C1166       C  0.14367717  0.65171217  0.43070794     0.06800
C1167       C  0.12739676  0.66936770  0.44759397    -0.07800
C1168       C  0.11248833  0.65709961  0.46944449     0.04200
C1169       C  0.11330030  0.62644904  0.47455156    -0.15000
C1170       C  0.12909089  0.60862537  0.45733295    -0.08400
C1171       C  0.15898371  0.66587927  0.40760521     0.05100
C1172       C  0.15080791  0.65992545  0.38120576    -0.09500
C1173       C  0.16346558  0.67392106  0.35881274     0.00100
C1174       C  0.18544935  0.69424818  0.36250757     0.00000
C1175       C  0.19351330  0.70006661  0.38921077    -0.13000
C1176       C  0.18041810  0.68635122  0.41154339     0.00500
C1177       C  0.15262982  0.66727872  0.33253513     0.39800
C1178       C  0.18944261  0.69354324  0.43835537     0.36400
C1179       C  0.16188116  0.60204803  0.41973777     0.36100
C1180       C  0.09616877  0.67640556  0.48618755     0.36900
N1181       N  0.14371935  0.66193362  0.31157231    -0.43900
N1182       N  0.19660292  0.69943269  0.45983824    -0.44400
N1183       N  0.08307984  0.69176714  0.49969744    -0.41700
N1184       N  0.17599371  0.58677193  0.40714636    -0.43200
H1185       H  0.13032379  0.58516769  0.46144695     0.13000
H1186       H  0.12640382  0.69288259  0.44370107     0.09500
H1187       H  0.13395244  0.64463967  0.37811565     0.10600
H1188       H  0.21011073  0.71548527  0.39282761     0.16400
C1189       C  0.41651212  0.83810587  0.39308073    -0.01800
C1190       C  0.39221585  0.85493782  0.39523417     0.06800
C1191       C  0.39265714  0.88123514  0.40973159    -0.07800
C1192       C  0.41715484  0.89122081  0.42154860     0.04200
C1193       C  0.44180575  0.87455054  0.41888590    -0.15000
C1194       C  0.44073140  0.84775904  0.40502399    -0.08400
C1195       C  0.36681232  0.84549468  0.38127685     0.05100
C1196       C  0.35403169  0.81920948  0.38964588    -0.09500
C1197       C  0.33417053  0.80569620  0.37366114     0.00100
C1198       C  0.32637715  0.81889233  0.34877280     0.00000
C1199       C  0.33801823  0.84630092  0.34138091    -0.13000
C1200       C  0.35807835  0.85958878  0.35735215     0.00500
C1201       C  0.32454289  0.77704484  0.38240630     0.39800
C1202       C  0.37072092  0.88669519  0.34795023     0.36400
C1203       C  0.41754461  0.81151953  0.37743521     0.36100
C1204       C  0.41636352  0.91903552  0.43525698     0.36900
N1205       N  0.31776238  0.75401819  0.39023332    -0.43900
N1206       N  0.38094166  0.90842500  0.34053780    -0.44400
N1207       N  0.41554247  0.94133974  0.44623225    -0.41700
N1208       N  0.41845231  0.79032317  0.36478353    -0.43200
H1209       H  0.45914224  0.83438910  0.40282361     0.13000
H1210       H  0.37394664  0.89423231  0.41135294     0.09500
H1211       H  0.36096874  0.80822941  0.40795632     0.10600
H1212       H  0.33212273  0.85694190  0.32256457     0.16400
C1213       C  0.35292672  0.84417213  0.07666194    -0.01800
C1214       C  0.36846728  0.83927032  0.10018860     0.06800
C1215       C  0.39596356  0.84902818  0.10082808    -0.07800
C1216       C  0.40790183  0.86410867  0.07867675     0.04200
C1217       C  0.39210113  0.86974972  0.05534149    -0.15000
C1218       C  0.36478071  0.85924223  0.05458129    -0.08400
C1219       C  0.35589602  0.82509877  0.12463140     0.05100
C1220       C  0.34644561  0.79597845  0.12335717    -0.09500
C1221       C  0.33215491  0.78287377  0.14521319     0.00100
C1222       C  0.32729860  0.79904178  0.16908606     0.00000
C1223       C  0.33794284  0.82773930  0.17065180    -0.13000
C1224       C  0.35191341  0.84087133  0.14868348     0.00500
C1225       C  0.32300179  0.75280968  0.14252591     0.39800
C1226       C  0.36060809  0.87113432  0.15078827     0.36400
C1227       C  0.32450355  0.83471847  0.07499376     0.36100
C1228       C  0.43659963  0.87248271  0.08017652     0.36900
N1229       N  0.31570055  0.72873987  0.14018903    -0.43900
N1230       N  0.36751837  0.89540849  0.15244039    -0.44400
N1231       N  0.45964400  0.87901083  0.08155000    -0.41700
N1232       N  0.30176730  0.82703454  0.07368947    -0.43200
H1233       H  0.35238500  0.86324722  0.03679842     0.13000
H1234       H  0.40809024  0.84489092  0.11876358     0.09500
H1235       H  0.34980660  0.78365819  0.10498952     0.10600
H1236       H  0.33434079  0.84049124  0.18871693     0.16400
C1237       C  0.15748129  0.68036751  0.14002432    -0.01800
C1238       C  0.14230212  0.65541535  0.14870819     0.06800
C1239       C  0.14886981  0.64169879  0.17329841    -0.07800
C1240       C  0.16859782  0.65384699  0.19031511     0.04200
C1241       C  0.18198333  0.68054897  0.18288661    -0.15000
C1242       C  0.17716071  0.69270412  0.15706684    -0.08400
C1243       C  0.11687034  0.64589972  0.13479642     0.05100
C1244       C  0.11567262  0.61814520  0.12282749    -0.09500
C1245       C  0.09070502  0.60721927  0.11273579     0.00100
C1246       C  0.06622951  0.62422557  0.11481770     0.00000
C1247       C  0.06799778  0.65244996  0.12603326    -0.13000
C1248       C  0.09279638  0.66319576  0.13612579     0.00500
C1249       C  0.09069629  0.57791474  0.10190034     0.39800
C1250       C  0.09265337  0.69127114  0.14947695     0.36400
C1251       C  0.15221997  0.69438894  0.11425155     0.36100
C1252       C  0.17462549  0.63818208  0.21511631     0.36900
N1253       N  0.09077157  0.55439561  0.09324871    -0.43900
N1254       N  0.09277905  0.71365020  0.16033142    -0.44400
N1255       N  0.17926931  0.62502513  0.23472207    -0.41700
N1256       N  0.14790858  0.70560589  0.09359500    -0.43200
H1257       H  0.18764618  0.71278659  0.15073683     0.13000
H1258       H  0.13757937  0.62216507  0.17980782     0.09500
H1259       H  0.13412123  0.60464320  0.12211886     0.10600
H1260       H  0.04968657  0.66597265  0.12782882     0.16400
C1261       C  0.36540856  0.59511733  0.11688992    -0.01800
C1262       C  0.34308385  0.59403555  0.13536674     0.06800
C1263       C  0.33121385  0.56683039  0.14227326    -0.07800
C1264       C  0.34198227  0.54060181  0.13209181     0.04200
C1265       C  0.36534092  0.54131119  0.11437280    -0.15000
C1266       C  0.37627232  0.56897172  0.10655685    -0.08400
C1267       C  0.33284135  0.62051572  0.14946030     0.05100
C1268       C  0.30602336  0.63063103  0.14444539    -0.09500
C1269       C  0.29426654  0.65295756  0.16006873     0.00100
C1270       C  0.30920284  0.66474887  0.18183615     0.00000
C1271       C  0.33644303  0.65533373  0.18606080    -0.13000
C1272       C  0.34842611  0.63370471  0.16988674     0.00500
C1273       C  0.26650730  0.66231623  0.15394875     0.39800
C1274       C  0.37643736  0.62467246  0.17520920     0.36400
C1275       C  0.37771825  0.62277652  0.10854132     0.36100
C1276       C  0.32849286  0.51360987  0.14061439     0.36900
N1277       N  0.24437236  0.66990945  0.14873492    -0.43900
N1278       N  0.39899020  0.61759071  0.17919466    -0.44400
N1279       N  0.31755305  0.49213524  0.14767276    -0.41700
N1280       N  0.38766224  0.64491972  0.10188256    -0.43200
H1281       H  0.39386500  0.57032762  0.09281908     0.13000
H1282       H  0.31386996  0.56605033  0.15639131     0.09500
H1283       H  0.29406229  0.62058491  0.12864241     0.10600
H1284       H  0.34831228  0.66464762  0.20230467     0.16400
C1285       C  0.16713578  0.88683284  0.35192486    -0.01800
C1286       C  0.16879678  0.88408393  0.38017415     0.06800
C1287       C  0.18494158  0.86169885  0.39153474    -0.07800
C1288       C  0.19917435  0.84171460  0.37505776     0.04200
C1289       C  0.19699244  0.84382570  0.34644551    -0.15000
C1290       C  0.18092515  0.86681401  0.33541758    -0.08400
C1291       C  0.15502820  0.90584149  0.39774800     0.05100
C1292       C  0.12652566  0.90345783  0.40276524    -0.09500
C1293       C  0.11186257  0.92650759  0.41485090     0.00100
C1294       C  0.12596960  0.95247020  0.42206836     0.00000
C1295       C  0.15472596  0.95400483  0.41820198    -0.13000
C1296       C  0.16925392  0.93105407  0.40607974     0.00500
C1297       C  0.08221267  0.92380144  0.41748442     0.39800
C1298       C  0.19846985  0.93460491  0.40079245     0.36400
C1299       C  0.15190155  0.91063119  0.33946886     0.36100
C1300       C  0.21614830  0.81992582  0.38833764     0.36900
N1301       N  0.05844966  0.92153782  0.41944356    -0.43900
N1302       N  0.22186356  0.93745019  0.39641117    -0.44400
N1303       N  0.22980352  0.80267056  0.39920781    -0.41700
N1304       N  0.13979434  0.92989269  0.32971921    -0.43200
H1305       H  0.17901756  0.86938830  0.31370728     0.13000
H1306       H  0.18668432  0.86009863  0.41334240     0.09500
H1307       H  0.11552922  0.88418662  0.39595428     0.10600
H1308       H  0.16580689  0.97362116  0.42393337     0.16400
C1309       C  0.87146654  0.68240355  0.37688061    -0.01800
C1310       C  0.86805811  0.65259272  0.38440518     0.06800
C1311       C  0.85242834  0.63411961  0.36808445    -0.07800
C1312       C  0.83854754  0.64541205  0.34557630     0.04200
C1313       C  0.83976350  0.67584350  0.33950789    -0.15000
C1314       C  0.85737670  0.69379291  0.35450952    -0.08400
C1315       C  0.87734503  0.64117907  0.41095248     0.05100
C1316       C  0.85758210  0.63816531  0.43171833    -0.09500
C1317       C  0.86488479  0.62753829  0.45728303     0.00100
C1318       C  0.89263528  0.61966592  0.46246666     0.00000
C1319       C  0.91236539  0.62232110  0.44143916    -0.13000
C1320       C  0.90492087  0.63308535  0.41581692     0.00500
C1321       C  0.84319215  0.62397272  0.47741160     0.39800
C1322       C  0.92571734  0.63537612  0.39474127     0.36400
C1323       C  0.88790330  0.70205823  0.39276000     0.36100
C1324       C  0.82312451  0.62539630  0.32911601     0.36900
N1325       N  0.82579574  0.62109422  0.49350575    -0.43900
N1326       N  0.94234037  0.63718189  0.37777871    -0.44400
N1327       N  0.81097514  0.60930409  0.31578945    -0.41700
N1328       N  0.90115452  0.71784374  0.40538437    -0.43200
H1329       H  0.85870062  0.71716028  0.34990742     0.13000
H1330       H  0.85024661  0.61103768  0.37356416     0.09500
H1331       H  0.83627474  0.64411613  0.42785790     0.10600
H1332       H  0.93369497  0.61639395  0.44512485     0.16400
C1333       C  0.63756217  0.63322432  0.20375788    -0.01800
C1334       C  0.63995902  0.62781819  0.17574317     0.06800
C1335       C  0.65729332  0.64598136  0.15977869    -0.07800
C1336       C  0.67343617  0.66792702  0.17155702     0.04200
C1337       C  0.67251014  0.67183939  0.19979676    -0.15000
C1338       C  0.65384254  0.65498064  0.21549990    -0.08400
C1339       C  0.62638003  0.60192638  0.16326102     0.05100
C1340       C  0.60727261  0.60586695  0.14236732    -0.09500
C1341       C  0.59399757  0.58162999  0.13067158     0.00100
C1342       C  0.59959977  0.55263416  0.14019213     0.00000
C1343       C  0.61967445  0.54908019  0.16038054    -0.13000
C1344       C  0.63310229  0.57309547  0.17160017     0.00500
C1345       C  0.57501986  0.58743307  0.10897517     0.39800
C1346       C  0.65438337  0.56743277  0.19120535     0.36400
C1347       C  0.61884431  0.61643745  0.22095873     0.36100
C1348       C  0.69010456  0.68680866  0.15423753     0.36900
N1349       N  0.55997294  0.59216854  0.09145152    -0.43900
N1350       N  0.67141589  0.56291859  0.20692025    -0.44400
N1351       N  0.70319484  0.70224833  0.14037327    -0.41700
N1352       N  0.60396955  0.60293325  0.23481368    -0.43200
H1353       H  0.65256539  0.65821336  0.23716371     0.13000
H1354       H  0.65881823  0.64244685  0.13818320     0.09500
H1355       H  0.60256843  0.62797831  0.13531775     0.10600
H1356       H  0.62529223  0.52729055  0.16755126     0.16400
C1357       C  0.63887536  0.81019548  0.15514775    -0.01800
C1358       C  0.64031477  0.84059707  0.14941481     0.06800
C1359       C  0.65483711  0.85898925  0.16665487    -0.07800
C1360       C  0.66894679  0.84732718  0.18886459     0.04200
C1361       C  0.66825490  0.81666332  0.19432829    -0.15000
C1362       C  0.65252560  0.79849538  0.17767365    -0.08400
C1363       C  0.62930531  0.85314218  0.12400795     0.05100
C1364       C  0.60333290  0.86674448  0.12399103    -0.09500
C1365       C  0.59229346  0.87821138  0.09994950     0.00100
C1366       C  0.60786138  0.87682171  0.07555817     0.00000
C1367       C  0.63391721  0.86311628  0.07591552    -0.13000
C1368       C  0.64454966  0.85117092  0.09971900     0.00500
C1369       C  0.56440311  0.88942480  0.10070816     0.39800
C1370       C  0.67111220  0.83674058  0.09872745     0.36400
C1371       C  0.62462269  0.79056941  0.13735127     0.36100
C1372       C  0.68424404  0.86737295  0.20540125     0.36900
N1373       N  0.54191449  0.89803358  0.10141818    -0.43900
N1374       N  0.69230630  0.82501092  0.09793292    -0.44400
N1375       N  0.69638989  0.88376734  0.21841709    -0.41700
N1376       N  0.61325971  0.77505205  0.12285124    -0.43200
H1377       H  0.65221971  0.77491071  0.18131440     0.13000
H1378       H  0.65601648  0.88238201  0.16212031     0.09500
H1379       H  0.59142015  0.86774081  0.14267281     0.10600
H1380       H  0.64621097  0.86170205  0.05749905     0.16400
C1381       C  0.63201568  0.81838234  0.37505765    -0.01800
C1382       C  0.60663476  0.82528629  0.36299492     0.06800
C1383       C  0.60272907  0.81834430  0.33574144    -0.07800
C1384       C  0.62397562  0.80541008  0.32028845     0.04200
C1385       C  0.64987238  0.79912210  0.33218980    -0.15000
C1386       C  0.65325011  0.80551512  0.35976481    -0.08400
C1387       C  0.58400782  0.83962286  0.37875086     0.05100
C1388       C  0.58646783  0.86936591  0.38572829    -0.09500
C1389       C  0.56585979  0.88341599  0.40115207     0.00100
C1390       C  0.54213621  0.86759497  0.40989044     0.00000
C1391       C  0.54000067  0.83767691  0.40302454    -0.13000
C1392       C  0.56062802  0.82368965  0.38776393     0.00500
C1393       C  0.56909317  0.91430010  0.40662475     0.39800
C1394       C  0.55769802  0.79278858  0.38203173     0.36400
C1395       C  0.63650597  0.82403584  0.40330276     0.36100
C1396       C  0.61883628  0.79995129  0.29211010     0.36900
N1397       N  0.57179264  0.93908069  0.41094102    -0.43900
N1398       N  0.55552637  0.76800165  0.37747218    -0.44400
N1399       N  0.61477102  0.79558255  0.26951579    -0.41700
N1400       N  0.63981851  0.82863280  0.42597318    -0.43200
H1401       H  0.67263154  0.80048647  0.36954869     0.13000
H1402       H  0.58312325  0.82346281  0.32641952     0.09500
H1403       H  0.60452261  0.88168232  0.37894129     0.10600
H1404       H  0.52203308  0.82507747  0.40959179     0.16400
C1405       C  0.87560356  0.84281273  0.34572386    -0.01800
C1406       C  0.86498534  0.86035344  0.36658754     0.06800
C1407       C  0.83926117  0.85347754  0.37822500    -0.07800
C1408       C  0.82303567  0.83080639  0.36802206     0.04200
C1409       C  0.83241879  0.81477455  0.34523822    -0.15000
C1410       C  0.85940003  0.82022297  0.33524992    -0.08400
C1411       C  0.87899733  0.88770274  0.37479337     0.05100
C1412       C  0.87850881  0.91201732  0.35711918    -0.09500
C1413       C  0.88934093  0.93918183  0.36468189     0.00100
C1414       C  0.90080454  0.94244543  0.39072043     0.00000
C1415       C  0.90206047  0.91753205  0.40798820    -0.13000
C1416       C  0.89123248  0.89038436  0.40023960     0.00500
C1417       C  0.88868610  0.96291131  0.34497202     0.39800
C1418       C  0.89281054  0.86551185  0.41862280     0.36400
C1419       C  0.90281687  0.84820790  0.33442041     0.36100
C1420       C  0.79677850  0.82512398  0.38127506     0.36900
N1421       N  0.88813240  0.98182717  0.32907758    -0.43900
N1422       N  0.89402782  0.84542524  0.43319073    -0.44400
N1423       N  0.77583394  0.82081683  0.39216743    -0.41700
N1424       N  0.92470883  0.85265347  0.32560632    -0.43200
H1425       H  0.86742410  0.80793495  0.31825736     0.13000
H1426       H  0.83137441  0.86666386  0.39472111     0.09500
H1427       H  0.86922423  0.90981294  0.33740503     0.10600
H1428       H  0.91092697  0.91930609  0.42790542     0.16400
C1429       C  0.87351648  0.67382401  0.16340210    -0.01800
C1430       C  0.89905137  0.66749218  0.17542090     0.06800
C1431       C  0.90318608  0.67544529  0.20236108    -0.07800
C1432       C  0.88207632  0.68889598  0.21760151     0.04200
C1433       C  0.85597206  0.69460789  0.20581325    -0.15000
C1434       C  0.85232835  0.68701818  0.17853454    -0.08400
C1435       C  0.92193970  0.65347620  0.15981819     0.05100
C1436       C  0.94350979  0.67118628  0.14979821    -0.09500
C1437       C  0.96520331  0.65919742  0.13450139     0.00100
C1438       C  0.96582907  0.62863082  0.12915609     0.00000
C1439       C  0.94386275  0.61097579  0.13883393    -0.13000
C1440       C  0.92208207  0.62313316  0.15410806     0.00500
C1441       C  0.98589933  0.67915350  0.12364727     0.39800
C1442       C  0.90034768  0.60404873  0.16423127     0.36400
C1443       C  0.86884927  0.66748976  0.13531847     0.36100
C1444       C  0.88784314  0.69583046  0.24535651     0.36900
N1445       N  0.00227511  0.69535801  0.11490062    -0.43900
N1446       N  0.88288620  0.58883816  0.17242968    -0.44400
N1447       N  0.89270702  0.70137174  0.26755574    -0.41700
N1448       N  0.86529310  0.66249122  0.11276279    -0.43200
H1449       H  0.83282268  0.69153054  0.16878814     0.13000
H1450       H  0.92297722  0.67092960  0.21157118     0.09500
H1451       H  0.94319378  0.69460926  0.15368658     0.10600
H1452       H  0.94404725  0.58753688  0.13506163     0.16400
C1453       C  0.38662171  0.39991694  0.89663264    -0.01800
C1454       C  0.36223156  0.40361049  0.88155432     0.06800
C1455       C  0.35219692  0.43215846  0.87700137    -0.07800
C1456       C  0.36645459  0.45681631  0.88614051     0.04200
C1457       C  0.39192134  0.45331951  0.89959860    -0.15000
C1458       C  0.40133626  0.42465273  0.90525740    -0.08400
C1459       C  0.34685312  0.37842689  0.86981602     0.05100
C1460       C  0.31847722  0.37511427  0.87577183    -0.09500
C1461       C  0.30246698  0.35400971  0.86264747     0.00100
C1462       C  0.31492647  0.33544808  0.84347799     0.00000
C1463       C  0.34331212  0.33838065  0.83785266    -0.13000
C1464       C  0.35922841  0.35973802  0.85055431     0.00500
C1465       C  0.27295542  0.35350191  0.86729569     0.39800
C1466       C  0.38767983  0.36332742  0.84195558     0.36400
C1467       C  0.39669172  0.37102529  0.90389983     0.36100
C1468       C  0.35364090  0.48526295  0.88252077     0.36900
N1469       N  0.24923961  0.35306238  0.87055885    -0.43900
N1470       N  0.41047232  0.36610464  0.83502547    -0.44400
N1471       N  0.34319171  0.50798850  0.87985798    -0.41700
N1472       N  0.40478817  0.34785595  0.90966029    -0.43200
H1473       H  0.42042471  0.42151808  0.91615551     0.13000
H1474       H  0.33310889  0.43522587  0.86606711     0.09500
H1475       H  0.30861133  0.38978839  0.89002926     0.10600
H1476       H  0.35289644  0.32457198  0.82268376     0.16400
C1477       C  0.35431200  0.13660481  0.68174123    -0.01800
C1478       C  0.36696931  0.15149761  0.65966797     0.06800
C1479       C  0.35505827  0.17770920  0.65006755    -0.07800
C1480       C  0.33231833  0.19039427  0.66344349     0.04200
C1481       C  0.32158418  0.17713707  0.68742695    -0.15000
C1482       C  0.33230246  0.14971931  0.69570509    -0.08400
C1483       C  0.39337094  0.14095870  0.64728803     0.05100
C1484       C  0.39432718  0.13372394  0.61978884    -0.09500
C1485       C  0.41894504  0.12391575  0.60753706     0.00100
C1486       C  0.44337665  0.12170400  0.62281182     0.00000
C1487       C  0.44244620  0.12957517  0.65015989    -0.13000
C1488       C  0.41784752  0.13893086  0.66246897     0.00500
C1489       C  0.41872399  0.11717416  0.57912379     0.39800
C1490       C  0.41843895  0.14665000  0.69068076     0.36400
C1491       C  0.36345762  0.10773540  0.69023768     0.36100
C1492       C  0.32159936  0.21763265  0.65264286     0.36900
N1493       N  0.41853551  0.11173393  0.55634849    -0.43900
N1494       N  0.41895748  0.15251412  0.71335368    -0.44400
N1495       N  0.31343628  0.23930599  0.64318669    -0.41700
N1496       N  0.37072909  0.08449963  0.69680705    -0.43200
H1497       H  0.32370973  0.13866218  0.71348462     0.13000
H1498       H  0.36420142  0.18886862  0.63260652     0.09500
H1499       H  0.37572094  0.13556890  0.60791107     0.10600
H1500       H  0.46101065  0.12807609  0.66214613     0.16400
C1501       C  0.14007056  0.12677200  0.69004335    -0.01800
C1502       C  0.14978962  0.11666928  0.66485130     0.06800
C1503       C  0.17439015  0.12860363  0.65398622    -0.07800
C1504       C  0.18962236  0.14970162  0.66811332     0.04200
C1505       C  0.18060161  0.15872289  0.69411534    -0.15000
C1506       C  0.15546055  0.14729469  0.70439124    -0.08400
C1507       C  0.13504418  0.09279211  0.65036557     0.05100
C1508       C  0.10814432  0.09769657  0.64095508    -0.09500
C1509       C  0.09252035  0.07479984  0.62995138     0.00100
C1510       C  0.10375663  0.04615188  0.62830139     0.00000
C1511       C  0.13112671  0.04165745  0.63677705    -0.13000
C1512       C  0.14671519  0.06454770  0.64767058     0.00500
C1513       C  0.06453650  0.08103182  0.62198235     0.39800
C1514       C  0.17410306  0.05809235  0.65735309     0.36400
C1515       C  0.11468413  0.11576815  0.70205438     0.36100
C1516       C  0.21456948  0.16111432  0.65553282     0.36900
N1517       N  0.04209557  0.08596150  0.61554278    -0.43900
N1518       N  0.19602766  0.05294620  0.66517386    -0.44400
N1519       N  0.23441122  0.17037915  0.64523538    -0.41700
N1520       N  0.09426715  0.10710952  0.71165299    -0.43200
H1521       H  0.14772259  0.15428266  0.72393902     0.13000
H1522       H  0.18181233  0.12121834  0.63445278     0.09500
H1523       H  0.09904557  0.11936399  0.64291690     0.10600
H1524       H  0.14023418  0.01992073  0.63551510     0.16400
C1525       C  0.13460379  0.30912091  0.88629843    -0.01800
C1526       C  0.12504072  0.33785027  0.88035053     0.06800
C1527       C  0.14010857  0.35536441  0.86182630    -0.07800
C1528       C  0.16323639  0.34419964  0.84806812     0.04200
C1529       C  0.17171813  0.31479006  0.85250834    -0.15000
C1530       C  0.15777485  0.29782422  0.87237709    -0.08400
C1531       C  0.09863770  0.34966516  0.89187534     0.05100
C1532       C  0.09704358  0.35762241  0.91917402    -0.09500
C1533       C  0.07283624  0.37015671  0.93011870     0.00100
C1534       C  0.04923406  0.37407716  0.91381083     0.00000
C1535       C  0.05091411  0.36582093  0.88656330    -0.13000
C1536       C  0.07535673  0.35432700  0.87545040     0.00500
C1537       C  0.07278147  0.37841203  0.95817791     0.39800
C1538       C  0.07616848  0.34791718  0.84694933     0.36400
C1539       C  0.12016952  0.29034491  0.90555555     0.36100
C1540       C  0.17800250  0.36342269  0.82942268     0.36900
N1541       N  0.07294821  0.38518614  0.98063384    -0.43900
N1542       N  0.07688135  0.34314793  0.82403854    -0.44400
N1543       N  0.18994438  0.37894312  0.81466055    -0.41700
N1544       N  0.10870287  0.27524318  0.92103879    -0.43200
H1545       H  0.16400669  0.27520701  0.87594931     0.13000
H1546       H  0.13332952  0.37767955  0.85760991     0.09500
H1547       H  0.11495364  0.35452357  0.93183806     0.10600
H1548       H  0.03321169  0.36903777  0.87363753     0.16400
C1549       C  0.13624805  0.37989090  0.60696728    -0.01800
C1550       C  0.14090840  0.34923193  0.60771303     0.06800
C1551       C  0.13048293  0.33184569  0.58705136    -0.07800
C1552       C  0.11629701  0.34454381  0.56539409     0.04200
C1553       C  0.11227070  0.37536959  0.56412536    -0.15000
C1554       C  0.12191043  0.39268973  0.58531420    -0.08400
C1555       C  0.15572327  0.33462434  0.63032524     0.05100
C1556       C  0.14403760  0.33548186  0.65629727    -0.09500
C1557       C  0.15672344  0.32145351  0.67819340     0.00100
C1558       C  0.18186888  0.30587647  0.67432001     0.00000
C1559       C  0.19341192  0.30493809  0.64806150    -0.13000
C1560       C  0.18061987  0.31913297  0.62620714     0.00500
C1561       C  0.14277408  0.32308548  0.70409281     0.39800
C1562       C  0.19367298  0.31801875  0.59982802     0.36400
C1563       C  0.14687103  0.39867779  0.62770724     0.36100
C1564       C  0.10539838  0.32521389  0.54520867     0.36900
N1565       N  0.13131316  0.32475195  0.72467993    -0.43900
N1566       N  0.20405203  0.31715900  0.57865030    -0.44400
N1567       N  0.09665978  0.30955331  0.52917927    -0.41700
N1568       N  0.15546865  0.41356884  0.64441342    -0.43200
H1569       H  0.11906934  0.41634574  0.58449909     0.13000
H1570       H  0.13337041  0.30818795  0.58793418     0.09500
H1571       H  0.12465112  0.34699032  0.65941074     0.10600
H1572       H  0.21268601  0.29338557  0.64456181     0.16400
C1573       C  0.32879174  0.18922300  0.91249489    -0.01800
C1574       C  0.34466029  0.16357590  0.90863594     0.06800
C1575       C  0.34613578  0.15140240  0.88285443    -0.07800
C1576       C  0.33212529  0.16416067  0.86100351     0.04200
C1577       C  0.31624195  0.19023147  0.86460128    -0.15000
C1578       C  0.31491397  0.20229585  0.89066450    -0.08400
C1579       C  0.35863085  0.14815863  0.93146787     0.05100
C1580       C  0.34231713  0.13509485  0.95197902    -0.09500
C1581       C  0.35443916  0.12041266  0.97389134     0.00100
C1582       C  0.38349676  0.11873265  0.97568120     0.00000
C1583       C  0.39985722  0.13086923  0.95471169    -0.13000
C1584       C  0.38768478  0.14552118  0.93269847     0.00500
C1585       C  0.33659937  0.10634335  0.99382330     0.39800
C1586       C  0.40544175  0.15844090  0.91208611     0.36400
C1587       C  0.32672036  0.20277660  0.93864550     0.36100
C1588       C  0.33403785  0.14905172  0.83557250     0.36900
N1589       N  0.32231910  0.09485392  0.00967553    -0.43900
N1590       N  0.41977694  0.16873144  0.89560291    -0.44400
N1591       N  0.33587313  0.13650329  0.81544268    -0.41700
N1592       N  0.32499668  0.21367763  0.95959009    -0.43200
H1593       H  0.30305065  0.22213769  0.89411397     0.13000
H1594       H  0.35791115  0.13137197  0.87991831     0.09500
H1595       H  0.31998790  0.13628518  0.95077433     0.10600
H1596       H  0.42218476  0.12971200  0.95595018     0.16400
C1597       C  0.85905968  0.33107394  0.57725757    -0.01800
C1598       C  0.85585573  0.34284313  0.60323427     0.06800
C1599       C  0.86740110  0.37042046  0.60872951    -0.07800
C1600       C  0.88115876  0.38686414  0.58841867     0.04200
C1601       C  0.88338881  0.37566274  0.56196476    -0.15000
C1602       C  0.87257275  0.34747924  0.55694358    -0.08400
C1603       C  0.84075761  0.32658090  0.62503265     0.05100
C1604       C  0.85588574  0.31329990  0.64580582    -0.09500
C1605       C  0.84248991  0.29852822  0.66727191     0.00100
C1606       C  0.81331231  0.29696205  0.66821697     0.00000
C1607       C  0.79822573  0.30949154  0.64688180    -0.13000
C1608       C  0.81167609  0.32439370  0.62547058     0.00500
C1609       C  0.85925170  0.28462861  0.68770012     0.39800
C1610       C  0.79520624  0.33817595  0.60472382     0.36400
C1611       C  0.84898134  0.30203809  0.57111520     0.36100
C1612       C  0.89170690  0.41551496  0.59509898     0.36900
N1613       N  0.87281007  0.27346024  0.70396491    -0.43900
N1614       N  0.78193944  0.34925846  0.58817132    -0.44400
N1615       N  0.90022115  0.43846686  0.60047165    -0.41700
N1616       N  0.84104024  0.27871317  0.56623963    -0.43200
H1617       H  0.87456988  0.33814459  0.53696337     0.13000
H1618       H  0.86522571  0.37932084  0.62886633     0.09500
H1619       H  0.87826289  0.31459504  0.64526551     0.10600
H1620       H  0.77583132  0.30856271  0.64742164     0.16400
C1621       C  0.67416421  0.42440319  0.91892778    -0.01800
C1622       C  0.65961227  0.40002069  0.90923500     0.06800
C1623       C  0.63153288  0.39657217  0.91592173    -0.07800
C1624       C  0.61719841  0.41860322  0.92979211     0.04200
C1625       C  0.63113769  0.44477723  0.93657831    -0.15000
C1626       C  0.65985857  0.44661519  0.93224776    -0.08400
C1627       C  0.67275646  0.37931567  0.89023681     0.05100
C1628       C  0.67616438  0.34986245  0.89809367    -0.09500
C1629       C  0.68808944  0.32960734  0.88038058     0.00100
C1630       C  0.69679487  0.33887992  0.85419166     0.00000
C1631       C  0.69305234  0.36843976  0.84636408    -0.13000
C1632       C  0.68112556  0.38860566  0.86405657     0.00500
C1633       C  0.68979608  0.29929627  0.88925681     0.39800
C1634       C  0.67703934  0.41854073  0.85467400     0.36400
C1635       C  0.70361744  0.42744351  0.91472241     0.36100
C1636       C  0.58808040  0.41437874  0.93523076     0.36900
N1637       N  0.69094489  0.27505755  0.89660917    -0.43900
N1638       N  0.67380742  0.44254485  0.84726782    -0.44400
N1639       N  0.56480009  0.41073934  0.93976086    -0.41700
N1640       N  0.72722781  0.42978442  0.91139972    -0.43200
H1641       H  0.67103789  0.46608555  0.93830534     0.13000
H1642       H  0.62050716  0.37733454  0.90908323     0.09500
H1643       H  0.66932544  0.34267538  0.91808613     0.10600
H1644       H  0.69943514  0.37584553  0.82629447     0.16400
C1645       C  0.82096534  0.15011415  0.64130689    -0.01800
C1646       C  0.81727005  0.11948383  0.64498516     0.06800
C1647       C  0.80060189  0.10912476  0.66652238    -0.07800
C1648       C  0.78817841  0.12857772  0.68455700     0.04200
C1649       C  0.79296419  0.15903754  0.68169958    -0.15000
C1650       C  0.80878732  0.16963558  0.65965088    -0.08400
C1651       C  0.83148683  0.09751726  0.62771464     0.05100
C1652       C  0.86048479  0.09690764  0.62688457    -0.09500
C1653       C  0.87469582  0.07387563  0.61434510     0.00100
C1654       C  0.85976102  0.05053174  0.60292010     0.00000
C1655       C  0.83078984  0.05179890  0.60277029    -0.13000
C1656       C  0.81663057  0.07523442  0.61463414     0.00500
C1657       C  0.90450424  0.07385544  0.61500276     0.39800
C1658       C  0.78686062  0.07603362  0.61313397     0.36400
C1659       C  0.83688271  0.16198582  0.61880649     0.36100
C1660       C  0.76957386  0.11685730  0.70506972     0.36900
N1661       N  0.92840053  0.07390075  0.61539866    -0.43900
N1662       N  0.76301887  0.07686661  0.61186792    -0.44400
N1663       N  0.75431132  0.10740784  0.72116400    -0.41700
N1664       N  0.84960044  0.17156002  0.60076422    -0.43200
H1665       H  0.81213118  0.19311833  0.65711912     0.13000
H1666       H  0.79746741  0.08565300  0.66940139     0.09500
H1667       H  0.87205457  0.11384183  0.63703642     0.10600
H1668       H  0.81917396  0.03427056  0.59354106     0.16400
C1669       C  0.59424376  0.12195888  0.63201718    -0.01800
C1670       C  0.59398542  0.14880743  0.64596624     0.06800
C1671       C  0.56968932  0.16555943  0.64618689    -0.07800
C1672       C  0.54549371  0.15546956  0.63412687     0.04200
C1673       C  0.54509935  0.12769105  0.62132195    -0.15000
C1674       C  0.57001470  0.11169585  0.61985176    -0.08400
C1675       C  0.61791881  0.15928379  0.66204927     0.05100
C1676       C  0.64268855  0.16803145  0.64912858    -0.09500
C1677       C  0.66445566  0.18054834  0.66378912     0.00100
C1678       C  0.66155454  0.18474194  0.69206496     0.00000
C1679       C  0.63692348  0.17489662  0.70483236    -0.13000
C1680       C  0.61547169  0.16230563  0.69028368     0.00500
C1681       C  0.68941822  0.18854990  0.64920842     0.39800
C1682       C  0.59108588  0.15245885  0.70496336     0.36400
C1683       C  0.61872013  0.10390588  0.63094497     0.36100
C1684       C  0.52157639  0.17440716  0.63539701     0.36900
N1685       N  0.70942631  0.19485142  0.63743474    -0.43900
N1686       N  0.57162418  0.14457101  0.71682147    -0.44400
N1687       N  0.50248029  0.18966342  0.63656900    -0.41700
N1688       N  0.63829876  0.08935296  0.62998035    -0.43200
H1689       H  0.57043056  0.09054718  0.61000954     0.13000
H1690       H  0.56949949  0.18650840  0.65642880     0.09500
H1691       H  0.64481126  0.16560525  0.62742973     0.10600
H1692       H  0.63400271  0.17734110  0.72644601     0.16400
C1693       C  0.63173478  0.12457134  0.93573471    -0.01800
C1694       C  0.63568688  0.15535301  0.93495126     0.06800
C1695       C  0.62382562  0.17266191  0.95516876    -0.07800
C1696       C  0.60926693  0.15965238  0.97675258     0.04200
C1697       C  0.60681807  0.12870980  0.97851873    -0.15000
C1698       C  0.61744485  0.11146658  0.95755622    -0.08400
C1699       C  0.65097191  0.17015569  0.91254661     0.05100
C1700       C  0.63927476  0.17030386  0.88695850    -0.09500
C1701       C  0.65245583  0.18422682  0.86504881     0.00100
C1702       C  0.67844225  0.19831642  0.86844199     0.00000
C1703       C  0.68982911  0.19856933  0.89451515    -0.13000
C1704       C  0.67625690  0.18476674  0.91649120     0.00500
C1705       C  0.63808235  0.18370949  0.83968460     0.39800
C1706       C  0.68882129  0.18531195  0.94279811     0.36400
C1707       C  0.64283489  0.10597174  0.91483241     0.36100
C1708       C  0.59648027  0.17855328  0.99651568     0.36900
N1709       N  0.62602347  0.18282914  0.81967964    -0.43900
N1710       N  0.69871178  0.18570980  0.96396040    -0.44400
N1711       N  0.58605939  0.19369740  0.01223593    -0.41700
N1712       N  0.65158027  0.09102664  0.89803374    -0.43200
H1713       H  0.61560283  0.08770191  0.95878527     0.13000
H1714       H  0.62593054  0.19640993  0.95401284     0.09500
H1715       H  0.61948547  0.15959117  0.88416577     0.10600
H1716       H  0.70956644  0.20915306  0.89775372     0.16400
C1717       C  0.86484911  0.34930323  0.85176056    -0.01800
C1718       C  0.87477254  0.33595183  0.87562638     0.06800
C1719       C  0.86245508  0.30958072  0.88482586    -0.07800
C1720       C  0.84100329  0.29623694  0.87040416     0.04200
C1721       C  0.83103694  0.30962682  0.84638921    -0.15000
C1722       C  0.84317105  0.33632162  0.83760530    -0.08400
C1723       C  0.89941601  0.34800967  0.88978838     0.05100
C1724       C  0.89771281  0.37527121  0.90271445    -0.09500
C1725       C  0.92111715  0.38834339  0.91424058     0.00100
C1726       C  0.94719541  0.37405135  0.91294485     0.00000
C1727       C  0.94844700  0.34634387  0.90043994    -0.13000
C1728       C  0.92507885  0.33343907  0.88897024     0.00500
C1729       C  0.91764218  0.41688723  0.92621172     0.39800
C1730       C  0.92819405  0.30573844  0.87533581     0.36400
C1731       C  0.87780644  0.37536263  0.84040094     0.36100
C1732       C  0.83151275  0.26766936  0.87957368     0.36900
N1733       N  0.91460445  0.43978876  0.93572589    -0.43900
N1734       N  0.93054376  0.28358396  0.86431198    -0.44400
N1735       N  0.82463705  0.24459421  0.88720976    -0.41700
N1736       N  0.88835664  0.39609237  0.83115453    -0.43200
H1737       H  0.83614411  0.34681137  0.81910844     0.13000
H1738       H  0.87033447  0.29883391  0.90285496     0.09500
H1739       H  0.87805384  0.38668753  0.90330756     0.10600
H1740       H  0.96792252  0.33466185  0.89919944     0.16400
C1741       C  0.12825329  0.68590422  0.65928831    -0.01800
C1742       C  0.13415101  0.65769238  0.64926788     0.06800
C1743       C  0.15496443  0.64084739  0.66143772    -0.07800
C1744       C  0.17113322  0.65238535  0.68200119     0.04200
C1745       C  0.16688433  0.68162575  0.69045809    -0.15000
C1746       C  0.14462754  0.69763838  0.67967692    -0.08400
C1747       C  0.12280004  0.64731369  0.62334531     0.05100
C1748       C  0.14096043  0.64647963  0.60112942    -0.09500
C1749       C  0.13251950  0.63584867  0.57624447     0.00100
C1750       C  0.10515654  0.62549926  0.57310545     0.00000
C1751       C  0.08684593  0.62636789  0.59543345    -0.13000
C1752       C  0.09539674  0.63739005  0.62041294     0.00500
C1753       C  0.15291221  0.63484033  0.55469191     0.39800
C1754       C  0.07590273  0.63796178  0.64271224     0.36400
C1755       C  0.10644267  0.70378239  0.64816218     0.36100
C1756       C  0.19183864  0.63366904  0.69402757     0.36900
N1757       N  0.16923157  0.63411139  0.53741112    -0.43900
N1758       N  0.06013119  0.63851865  0.66047850    -0.44400
N1759       N  0.20827800  0.61850822  0.70370661    -0.41700
N1760       N  0.08880316  0.71816819  0.63959286    -0.43200
H1761       H  0.14081234  0.71994425  0.68622615     0.13000
H1762       H  0.15932116  0.61896857  0.65402435     0.09500
H1763       H  0.16208296  0.65400386  0.60336677     0.10600
H1764       H  0.06578828  0.61866890  0.59330885     0.16400
C1765       C  0.39304345  0.84286446  0.71233591    -0.01800
C1766       C  0.39435109  0.84584469  0.68398426     0.06800
C1767       C  0.37277169  0.83504919  0.66841917    -0.07800
C1768       C  0.35003639  0.82105254  0.68067909     0.04200
C1769       C  0.34856327  0.81796803  0.70918380    -0.15000
C1770       C  0.37024536  0.82898964  0.72473007    -0.08400
C1771       C  0.41884256  0.85857527  0.67001367     0.05100
C1772       C  0.44299662  0.84179314  0.66861178    -0.09500
C1773       C  0.46652537  0.85243608  0.65498094     0.00100
C1774       C  0.46609161  0.88068089  0.64239103     0.00000
C1775       C  0.44167071  0.89741480  0.64399141    -0.13000
C1776       C  0.41817500  0.88657893  0.65759501     0.00500
C1777       C  0.49016943  0.83316530  0.65366912     0.39800
C1778       C  0.39368726  0.90463207  0.65881840     0.36400
C1779       C  0.41484870  0.85406829  0.72895866     0.36100
C1780       C  0.32955509  0.80847516  0.66330352     0.36900
N1781       N  0.50874575  0.81718164  0.65298573    -0.43900
N1782       N  0.37403552  0.91906909  0.65981612    -0.44400
N1783       N  0.31352368  0.79830408  0.64901865    -0.41700
N1784       N  0.43244944  0.86314855  0.74207458    -0.43200
H1785       H  0.36931926  0.82687932  0.74658738     0.13000
H1786       H  0.37408533  0.83691139  0.64655135     0.09500
H1787       H  0.44330835  0.82006769  0.67798744     0.10600
H1788       H  0.44090070  0.91915233  0.63471946     0.16400
C1789       C  0.05392794  0.64687195  0.85697812    -0.01800
C1790       C  0.08125720  0.64592620  0.86646024     0.06800
C1791       C  0.08642193  0.63232679  0.89155348    -0.07800
C1792       C  0.06493004  0.61978904  0.90717686     0.04200
C1793       C  0.03738761  0.62112588  0.89787001    -0.15000
C1794       C  0.03240221  0.63478665  0.87268340    -0.08400
C1795       C  0.10448124  0.65997047  0.85095430     0.05100
C1796       C  0.10309797  0.69016138  0.84477895    -0.09500
C1797       C  0.12451521  0.70446360  0.83053158     0.00100
C1798       C  0.14826398  0.68855884  0.82254950     0.00000
C1799       C  0.14971259  0.65836578  0.82884064    -0.13000
C1800       C  0.12801090  0.64397044  0.84265296     0.00500
C1801       C  0.12203861  0.73573869  0.82576921     0.39800
C1802       C  0.13001687  0.61263798  0.84735190     0.36400
C1803       C  0.04751319  0.65944710  0.83083211     0.36100
C1804       C  0.07184785  0.60649287  0.93288943     0.36900
N1805       N  0.11959703  0.76083271  0.82237150    -0.43900
N1806       N  0.13160890  0.58750523  0.85103568    -0.44400
N1807       N  0.07746653  0.59572578  0.95343215    -0.41700
N1808       N  0.04241706  0.66950085  0.80986504    -0.43200
H1809       H  0.01157236  0.63572801  0.86491589     0.13000
H1810       H  0.10734548  0.63183039  0.89912695     0.09500
H1811       H  0.08528697  0.70271581  0.85145017     0.10600
H1812       H  0.16773665  0.64588508  0.82261990     0.16400
C1813       C  0.39180506  0.60551024  0.89342054    -0.01800
C1814       C  0.38696561  0.60725664  0.86540084     0.06800
C1815       C  0.39745303  0.58515145  0.84867735    -0.07800
C1816       C  0.41090109  0.56050093  0.85969354     0.04200
C1817       C  0.41386595  0.55759422  0.88802652    -0.15000
C1818       C  0.40534879  0.58092266  0.90447730    -0.08400
C1819       C  0.36833588  0.62996132  0.85359732     0.05100
C1820       C  0.37886101  0.65739647  0.84522520    -0.09500
C1821       C  0.36157862  0.67893835  0.83366931     0.00100
C1822       C  0.33301788  0.67300438  0.83007014     0.00000
C1823       C  0.32274529  0.64542433  0.83889662    -0.13000
C1824       C  0.33997920  0.62418213  0.85056807     0.00500
C1825       C  0.37378025  0.70703007  0.82654512     0.39800
C1826       C  0.32800614  0.59654689  0.85949198     0.36400
C1827       C  0.38140095  0.62772760  0.91140210     0.36100
C1828       C  0.42127302  0.53842243  0.84148772     0.36900
N1829       N  0.38377071  0.72950381  0.82103428    -0.43900
N1830       N  0.31831724  0.57448044  0.86672390    -0.44400
N1831       N  0.42971854  0.52097898  0.82671586    -0.41700
N1832       N  0.37299242  0.64547173  0.92587391    -0.43200
H1833       H  0.40744692  0.57901939  0.92622747     0.13000
H1834       H  0.39412620  0.58660263  0.82706146     0.09500
H1835       H  0.40064185  0.66201754  0.84782843     0.10600
H1836       H  0.30107829  0.64013692  0.83650299     0.16400
C1837       C  0.36813514  0.82263498  0.87142175    -0.01800
C1838       C  0.35991344  0.84955597  0.88281276     0.06800
C1839       C  0.33846688  0.86558993  0.87094658    -0.07800
C1840       C  0.32367859  0.85406962  0.84943155     0.04200
C1841       C  0.32979567  0.82547850  0.83999945    -0.15000
C1842       C  0.35290920  0.81066190  0.85040107    -0.08400
C1843       C  0.37190745  0.86026368  0.90827314     0.05100
C1844       C  0.38477459  0.88790937  0.90873226    -0.09500
C1845       C  0.39528723  0.89907579  0.93282361     0.00100
C1846       C  0.39332210  0.88209093  0.95703828     0.00000
C1847       C  0.38023178  0.85442788  0.95625510    -0.13000
C1848       C  0.36911535  0.84378885  0.93247211     0.00500
C1849       C  0.40672906  0.92841041  0.93204937     0.39800
C1850       C  0.35362028  0.81659056  0.93380301     0.36400
C1851       C  0.39180042  0.80670813  0.88138024     0.36100
C1852       C  0.30275773  0.87239284  0.83726229     0.36900
N1853       N  0.41570132  0.95201844  0.93121321    -0.43900
N1854       N  0.34110183  0.79489718  0.93493339    -0.44400
N1855       N  0.28632891  0.88750101  0.82750185    -0.41700
N1856       N  0.41079642  0.79406054  0.88943661    -0.43200
H1857       H  0.35844014  0.78910160  0.84296621     0.13000
H1858       H  0.33271822  0.88680127  0.87906102     0.09500
H1859       H  0.38628627  0.90094975  0.89023745     0.10600
H1860       H  0.37805641  0.84103544  0.97446874     0.16400
C1861       C  0.10867909  0.91517326  0.67424237    -0.01800
C1862       C  0.11295680  0.89019345  0.65821168     0.06800
C1863       C  0.10192393  0.88955453  0.63213428    -0.07800
C1864       C  0.08856848  0.91438947  0.62120188     0.04200
C1865       C  0.08637040  0.94033170  0.63659373    -0.15000
C1866       C  0.09554792  0.93988072  0.66338987    -0.08400
C1867       C  0.13176777  0.86646337  0.66750035     0.05100
C1868       C  0.12091297  0.83986267  0.67756220    -0.09500
C1869       C  0.13797999  0.81903060  0.69035059     0.00100
C1870       C  0.16670627  0.82465722  0.69294373     0.00000
C1871       C  0.17748261  0.85082629  0.68132509    -0.13000
C1872       C  0.16038724  0.87160452  0.66894223     0.00500
C1873       C  0.12507775  0.79259798  0.70095892     0.39800
C1874       C  0.17250816  0.89878297  0.65892249     0.36400
C1875       C  0.11909194  0.91652397  0.70141904     0.36100
C1876       C  0.07936905  0.91335830  0.59358076     0.36900
N1877       N  0.11435136  0.77158649  0.70941642    -0.43900
N1878       N  0.18209170  0.92068232  0.65110496    -0.44400
N1879       N  0.07197012  0.91254058  0.57145108    -0.41700
N1880       N  0.12763934  0.91756553  0.72311494    -0.43200
H1881       H  0.09354832  0.95943650  0.67557148     0.13000
H1882       H  0.10509884  0.87027791  0.61981709     0.09500
H1883       H  0.09885918  0.83592125  0.67642968     0.10600
H1884       H  0.19930278  0.85585884  0.68280081     0.16400
C1885       C  0.81070760  0.66758268  0.62816444    -0.01800
C1886       C  0.83914330  0.66099835  0.62987388     0.06800
C1887       C  0.85332249  0.66782179  0.65347777    -0.07800
C1888       C  0.83965508  0.68085475  0.67531448     0.04200
C1889       C  0.81113083  0.68725929  0.67376509    -0.15000
C1890       C  0.79699842  0.68073424  0.64997736    -0.08400
C1891       C  0.85479330  0.64855735  0.60669757     0.05100
C1892       C  0.85623467  0.66481562  0.58249947    -0.09500
C1893       C  0.87012377  0.65395443  0.55982140     0.00100
C1894       C  0.88342924  0.62613425  0.56116229     0.00000
C1895       C  0.88267284  0.61031169  0.58582946    -0.22200
C1896       C  0.86840428  0.62118853  0.60842219     0.00500
C1897       C  0.87033132  0.67226340  0.53570889     0.39800
C1898       C  0.86707153  0.60337724  0.63280573     0.36400
C1899       C  0.79512101  0.66053623  0.60441365     0.36100
C1900       C  0.85584170  0.68896350  0.69835047     0.36900
N1901       N  0.87020742  0.68699353  0.51643413    -0.43900
N1902       N  0.86592274  0.58911781  0.65235435    -0.44400
N1903       N  0.86910384  0.69557104  0.71658204    -0.41700
N1904       N  0.78277282  0.65485269  0.58530592    -0.43200
H1905       H  0.77511835  0.68556039  0.64857145     0.13000
H1906       H  0.87531715  0.66350263  0.65459910     0.09500
H1907       H  0.84625844  0.68615589  0.58130684     0.10600
H1908       H  0.89254673  0.58896118  0.58731473     0.16400
C1909       C  0.68781623  0.63628323  0.89364655    -0.01800
C1910       C  0.65981719  0.62862693  0.89106401     0.06800
C1911       C  0.64293046  0.64460117  0.87345708    -0.07800
C1912       C  0.65409424  0.66670221  0.85679314     0.04200
C1913       C  0.68264231  0.67287904  0.85778150    -0.15000
C1914       C  0.69899650  0.65844245  0.87709033    -0.08400
C1915       C  0.64843761  0.60191558  0.90395870     0.05100
C1916       C  0.62992492  0.60443422  0.92573114    -0.09500
C1917       C  0.61785601  0.57936743  0.93760413     0.00100
C1918       C  0.62445478  0.55120809  0.92744317     0.00000
C1919       C  0.64281170  0.54908419  0.90529359    -0.13000
C1920       C  0.65467062  0.57408595  0.89347148     0.00500
C1921       C  0.59936720  0.58339832  0.96038176     0.39800
C1922       C  0.67251585  0.57070124  0.87007009     0.36400
C1923       C  0.70565317  0.62097757  0.91231112     0.36100
C1924       C  0.63582886  0.68248428  0.83890331     0.36900
N1925       N  0.58450030  0.58674061  0.97858668    -0.43900
N1926       N  0.68669956  0.56789450  0.85127550    -0.44400
N1927       N  0.62092450  0.69505278  0.82476575    -0.41700
N1928       N  0.72011606  0.60889176  0.92722790    -0.43200
H1929       H  0.72090022  0.66329088  0.87822421     0.13000
H1930       H  0.62125854  0.63885464  0.87187925     0.09500
H1931       H  0.62494684  0.62604400  0.93342745     0.10600
H1932       H  0.64774120  0.52781112  0.89684424     0.16400
C1933       C  0.64789257  0.86445025  0.68632585    -0.01800
C1934       C  0.64354739  0.85651057  0.65935534     0.06800
C1935       C  0.66165403  0.83666106  0.64692697    -0.07800
C1936       C  0.68290903  0.82314422  0.66156347     0.04200
C1937       C  0.68620283  0.82957264  0.68933428    -0.15000
C1938       C  0.66922845  0.85139392  0.70085286    -0.08400
C1939       C  0.61820837  0.86602663  0.64528960     0.05100
C1940       C  0.61479627  0.89578013  0.63818923    -0.09500
C1941       C  0.58927479  0.90626330  0.62908585     0.00100
C1942       C  0.56668466  0.88670597  0.62714503     0.00000
C1943       C  0.57063193  0.85675672  0.63311663    -0.13000
C1944       C  0.59605605  0.84630635  0.64213104     0.00500
C1945       C  0.58637877  0.93738244  0.62361671     0.39800
C1946       C  0.59847652  0.81551508  0.64933507     0.36400
C1947       C  0.62923186  0.88404005  0.70027624     0.36100
C1948       C  0.69987104  0.80191869  0.64767109     0.36900
N1949       N  0.58396301  0.96231525  0.61922424    -0.43900
N1950       N  0.60038737  0.79083851  0.65507019    -0.44400
N1951       N  0.71337422  0.78502155  0.63626745    -0.41700
N1952       N  0.61413786  0.89955060  0.71146465    -0.43200
H1953       H  0.67147039  0.85722897  0.72188631     0.13000
H1954       H  0.65832063  0.83069788  0.62607001     0.09500
H1955       H  0.63177853  0.91100421  0.64084621     0.10600
H1956       H  0.55365059  0.84147776  0.63106823     0.16400
C1957       C  0.66426752  0.85227629  0.88617522    -0.01800
C1958       C  0.65461785  0.83571166  0.90864158     0.06800
C1959       C  0.65972812  0.80536802  0.90974788    -0.07800
C1960       C  0.67483844  0.79148203  0.88923635     0.04200
C1961       C  0.68533602  0.80813864  0.86698287    -0.15000
C1962       C  0.67947428  0.83848155  0.86563029    -0.08400
C1963       C  0.64092593  0.84986927  0.93214795     0.05100
C1964       C  0.61425300  0.86170132  0.92968796    -0.09500
C1965       C  0.60085193  0.87465348  0.95189789     0.00100
C1966       C  0.61442926  0.87617291  0.97697724     0.00000
C1967       C  0.64118114  0.86443884  0.97916895    -0.13000
C1968       C  0.65435606  0.85130814  0.95717093     0.00500
C1969       C  0.57275917  0.88471257  0.94884677     0.39800
C1970       C  0.68177064  0.83947230  0.96072909     0.36400
C1971       C  0.65935713  0.88355769  0.88419896     0.36100
C1972       C  0.67830963  0.76000555  0.89126733     0.36900
N1973       N  0.55018913  0.89270698  0.94669296    -0.43900
N1974       N  0.70366695  0.82979746  0.96352184    -0.44400
N1975       N  0.68081416  0.73475733  0.89318085    -0.41700
N1976       N  0.65520852  0.90859562  0.88277166    -0.43200
H1977       H  0.68712980  0.85159274  0.84864054     0.13000
H1978       H  0.65205786  0.79252910  0.92691577     0.09500
H1979       H  0.60373456  0.86030675  0.91053072     0.10600
H1980       H  0.65194265  0.86546655  0.99822670     0.16400
C1981       C  0.82331031  0.84422450  0.63904984    -0.01800
C1982       C  0.84422926  0.86340489  0.64755600     0.06800
C1983       C  0.85467382  0.86030423  0.67365190    -0.07800
C1984       C  0.84348411  0.83975727  0.69192430     0.04200
C1985       C  0.82047263  0.82235014  0.68439184    -0.15000
C1986       C  0.81148125  0.82408385  0.65745535    -0.08400
C1987       C  0.85287548  0.88932884  0.63111545     0.05100
C1988       C  0.83270189  0.91020602  0.62440594    -0.09500
C1989       C  0.83991712  0.93687240  0.61189305     0.00100
C1990       C  0.86795080  0.94308936  0.60592860     0.00000
C1991       C  0.88806423  0.92169573  0.61185154    -0.13000
C1992       C  0.88079773  0.89508117  0.62456272     0.00500
C1993       C  0.81802778  0.95719661  0.60530226     0.39800
C1994       C  0.90235701  0.87433789  0.63117183     0.36400
C1995       C  0.81345757  0.84519120  0.61162922     0.36100
C1996       C  0.85598427  0.83784104  0.71826562     0.36900
N1997       N  0.80040378  0.97340858  0.60008430    -0.43900
N1998       N  0.91965213  0.85782792  0.63667131    -0.44400
N1999       N  0.86614681  0.83641396  0.73929059    -0.41700
N2000       N  0.80574368  0.84598451  0.58959220    -0.43200
H2001       H  0.79455292  0.81042192  0.65086925     0.13000
H2002       H  0.87092521  0.87492807  0.68019582     0.09500
H2003       H  0.81123024  0.90598814  0.62971637     0.10600
H2004       H  0.90968105  0.92614259  0.60741965     0.16400
C2005       C  0.85338052  0.63413853  0.85615665    -0.01800
C2006       C  0.85810324  0.64300359  0.88279407     0.06800
C2007       C  0.83973223  0.66254265  0.89518749    -0.07800
C2008       C  0.81781786  0.67500076  0.88072839     0.04200
C2009       C  0.81467151  0.66850389  0.85294962    -0.15000
C2010       C  0.83176851  0.64667200  0.84159511    -0.08400
C2011       C  0.88407168  0.63503273  0.89643874     0.05100
C2012       C  0.90586572  0.65524983  0.89515596    -0.09500
C2013       C  0.93217886  0.64754280  0.90412540     0.00100
C2014       C  0.93699748  0.61891535  0.91478893     0.00000
C2015       C  0.91458306  0.59923019  0.91731968    -0.13000
C2016       C  0.88830703  0.60703061  0.90807371     0.00500
C2017       C  0.95363276  0.66958895  0.90193735     0.39800
C2018       C  0.86612206  0.58584462  0.91001969     0.36400
C2019       C  0.87173317  0.61386000  0.84267735     0.36100
C2020       C  0.79965823  0.69477283  0.89498407     0.36900
N2021       N  0.97065179  0.68741969  0.89998351    -0.43900
N2022       N  0.84822360  0.56898665  0.91151539    -0.44400
N2023       N  0.78514353  0.71027959  0.90687777    -0.41700
N2024       N  0.88650250  0.59768305  0.83189018    -0.43200
H2025       H  0.82937227  0.64042361  0.82068667     0.13000
H2026       H  0.84316469  0.66889055  0.91592783     0.09500
H2027       H  0.90248004  0.67687216  0.88622752     0.10600
H2028       H  0.91776945  0.57727225  0.92553104     0.16400
loop_ 
_geom_bond_atom_site_label_1 
_geom_bond_atom_site_label_2 
_geom_bond_distance 
_geom_bond_site_symmetry_2 
_ccdc_geom_bond_type 
N1            C6   1.352   1_565  A
N1            C5   1.356       .  A
N1           H33   1.035       .  S
N2            C9   1.355       .  A
N2           C10   1.352       .  A
N3            C8   1.357       .  A
N3            C7   1.352   1_545  A
N3           H34   1.034   1_545  S
N4           C11   1.351       .  A
N4           C12   1.353       .  A
C5           C13   1.388       .  A
C5           C21   1.418       .  A
C6           C22   1.415       .  A
C6           C14   1.388       .  A
C7           C15   1.389       .  A
C7           C24   1.420       .  A
C8           C23   1.419       .  A
C8           C16   1.387       .  A
C9           C21   1.417       .  A
C9           C17   1.385       .  A
C10          C24   1.420       .  A
C10          C18   1.389       .  A
C11          C19   1.388       .  A
C11          C22   1.414       .  A
C12          C20   1.386       .  A
C12          C23   1.414       .  A
C13          C14   1.375   1_565  A
C13          H25   1.082       .  S
C14          H26   1.082       .  S
C15          C16   1.378   1_565  A
C15          H27   1.082       .  S
C16          H28   1.082       .  S
C17          C18   1.374       .  A
C17          H29   1.082       .  S
C18          H30   1.082       .  S
C19          C20   1.372       .  A
C19          H31   1.082       .  S
C20          H32   1.082       .  S
C21         C801   1.488       .  S
C22         C755   1.471       .  S
C23         C839   1.485       .  S
C24         C861   1.476       .  S
N35          C40   1.354   1_455  A
N35          C39   1.354       .  A
N35          H67   1.037   1_455  S
N36          C43   1.354       .  A
N36          C44   1.353       .  A
N37          C42   1.356       .  A
N37          C41   1.355   1_655  A
N37          H68   1.037       .  S
N38          C45   1.352       .  A
N38          C46   1.352       .  A
C39          C47   1.387       .  A
C39          C55   1.416       .  A
C40          C56   1.417       .  A
C40          C48   1.388       .  A
C41          C49   1.388       .  A
C41          C58   1.420       .  A
C42          C57   1.419       .  A
C42          C50   1.387       .  A
C43          C55   1.416       .  A
C43          C51   1.386       .  A
C44          C58   1.416       .  A
C44          C52   1.387       .  A
C45          C53   1.387       .  A
C45          C56   1.415       .  A
C46          C54   1.386       .  A
C46          C57   1.414       .  A
C47          C48   1.375   1_455  A
C47          H59   1.082       .  S
C48          H60   1.082       .  S
C49          C50   1.376   1_455  A
C49          H61   1.082       .  S
C50          H62   1.082       .  S
C51          C52   1.375       .  A
C51          H63   1.082       .  S
C52          H64   1.082       .  S
C53          C54   1.375       .  A
C53          H65   1.082       .  S
C54          H66   1.082       .  S
C55         C807   1.484       .  S
C56         C873   1.480       .  S
C57         C777   1.483       .  S
C58         C821   1.481       .  S
N69          C74   1.352       .  A
N69          C73   1.357       .  A
N69         H101   1.037       .  S
N70          C77   1.351       .  A
N70          C78   1.348       .  A
N71          C76   1.354       .  A
N71          C75   1.351       .  A
N71         H102   1.037       .  S
N72          C79   1.351       .  A
N72          C80   1.354   1_554  A
C73          C81   1.385       .  A
C73          C89   1.417       .  A
C74          C90   1.421       .  A
C74          C82   1.390       .  A
C75          C83   1.388       .  A
C75          C92   1.413       .  A
C76          C91   1.414       .  A
C76          C84   1.386       .  A
C77          C89   1.411       .  A
C77          C85   1.386       .  A
C78          C92   1.410   1_554  A
C78          C86   1.388       .  A
C79          C87   1.388       .  A
C79          C90   1.416       .  A
C80          C88   1.385       .  A
C80          C91   1.415       .  A
C81          C82   1.374       .  A
C81          H93   1.082       .  S
C82          H94   1.081       .  S
C83          C84   1.375       .  A
C83          H95   1.083       .  S
C84          H96   1.082       .  S
C85          C86   1.371       .  A
C85          H97   1.082       .  S
C86          H98   1.082       .  S
C87          C88   1.374   1_554  A
C87          H99   1.082       .  S
C88         H100   1.082       .  S
C89         C771   1.485       .  S
C90         C785   1.476       .  S
C91         C843   1.484       .  S
C92         C869   1.464       .  S
N103        C108   1.352   1_455  A
N103        C107   1.357       .  A
N103        H135   1.037       .  S
N104        C111   1.354       .  A
N104        C112   1.351   1_554  A
N105        C110   1.358       .  A
N105        C109   1.354       .  A
N105        H136   1.037   1_655  S
N106        C113   1.351   1_655  A
N106        C114   1.354   1_654  A
C107        C115   1.385   1_455  A
C107        C123   1.416       .  A
C108        C124   1.418   1_655  A
C108        C116   1.390       .  A
C109        C117   1.389       .  A
C109        C126   1.421       .  A
C110        C125   1.420       .  A
C110        C118   1.386       .  A
C111        C123   1.415       .  A
C111        C119   1.385       .  A
C112        C126   1.416   1_455  A
C112        C120   1.388       .  A
C113        C121   1.387       .  A
C113        C124   1.415       .  A
C114        C122   1.386   1_556  A
C114        C125   1.415   1_455  A
C115        C116   1.375       .  A
C115        H127   1.082       .  S
C116        H128   1.082       .  S
C117        C118   1.378       .  A
C117        H129   1.082       .  S
C118        H130   1.082       .  S
C119        C120   1.373   1_554  A
C119        H131   1.082       .  S
C120        H132   1.082       .  S
C121        C122   1.373       .  A
C121        H133   1.082       .  S
C122        H134   1.082   1_554  S
C123        C791   1.488       .  S
C124        C743   1.472       .  S
C125        C827   1.491       .  S
C126        C857   1.477       .  S
N137        C142   1.353       .  A
N137        C141   1.353       .  A
N137        H169   1.035       .  S
N138        C145   1.351       .  A
N138        C146   1.351   1_565  A
N139        C144   1.353       .  A
N139        C143   1.353       .  A
N139        H170   1.036       .  S
N140        C147   1.352       .  A
N140        C148   1.352   1_565  A
C141        C149   1.387       .  A
C141        C157   1.415       .  A
C142        C158   1.416       .  A
C142        C150   1.388       .  A
C143        C151   1.387       .  A
C143        C160   1.415       .  A
C144        C159   1.417       .  A
C144        C152   1.389       .  A
C145        C157   1.413       .  A
C145        C153   1.386       .  A
C146        C160   1.412       .  A
C146        C154   1.386       .  A
C147        C155   1.386       .  A
C147        C158   1.415       .  A
C148        C156   1.387       .  A
C148        C159   1.416       .  A
C149        C150   1.373       .  A
C149        H161   1.082       .  S
C150        H162   1.082       .  S
C151        C152   1.375       .  A
C151        H163   1.082       .  S
C152        H164   1.082       .  S
C153        C154   1.374   1_565  A
C153        H165   1.082       .  S
C154        H166   1.083       .  S
C155        C156   1.374   1_565  A
C155        H167   1.082   1_554  S
C156        H168   1.082       .  S
C157        C813   1.476       .  S
C158        C795   1.479       .  S
C159        C749   1.479       .  S
C160        C765   1.476       .  S
Zr171       O172   2.437       .  S
Zr171       O173   2.402       .  S
Zr171       O174   2.447       .  S
Zr171       O177   2.433       .  S
Zr171       O179   2.374       .  S
Zr171       O180   2.390       .  S
Zr171       O181   2.397       .  S
Zr171       O182   2.397       .  S
O172        H228   0.990       .  S
O172        H236   0.990       .  S
O173        C193   1.280       .  A
O174        C195   1.288       .  A
O175       Zr185   2.421       .  S
O175        C194   1.284       .  A
O176       Zr184   2.426       .  S
O176        C195   1.284       .  A
O177        C194   1.285       .  A
O178       Zr186   2.423       .  S
O178        C193   1.283       .  A
O179       Zr184   2.381       .  S
O179       Zr186   2.371       .  S
O180       Zr185   2.380       .  S
O180       Zr186   2.373       .  S
O180        H215   0.966       .  S
O181       Zr184   2.391       .  S
O181       Zr201   2.397       .  S
O181        H218   0.965       .  S
O182       Zr185   2.394       .  S
O182       Zr201   2.388       .  S
Zr183       O208   2.440       .  S
Zr183       O202   2.429       .  S
Zr183       O210   2.432       .  S
Zr183       O198   2.437       .  S
Zr183       O189   2.404       .  S
Zr183       O190   2.400       .  S
Zr183       O191   2.382       .  S
Zr183       O192   2.381       .  S
Zr184       O203   2.436       .  S
Zr184       O196   2.435       .  S
Zr184       O197   2.412       .  S
Zr184       O190   2.393       .  S
Zr184       O191   2.383       .  S
Zr185       O187   2.434       .  S
Zr185       O209   2.437       .  S
Zr185       O211   2.432       .  S
Zr185       O189   2.389       .  S
Zr185       O192   2.382       .  S
Zr186       O212   2.435       .  S
Zr186       O213   2.436       .  S
Zr186       O188   2.436       .  S
Zr186       O189   2.401       .  S
Zr186       O190   2.387       .  S
O187        H224   0.990       .  S
O188        H219   0.990       .  S
O188        H233   0.990       .  S
O190        H216   0.967       .  S
O191       Zr201   2.374       .  S
O192       Zr201   2.367       .  S
O192        H217   0.966       .  S
C193       C1913   1.468       .  S
C194       C2009   1.494       .  S
C195       C1961   1.490       .  S
O196        H232   0.990       .  S
O197        C199   1.283       .  A
O198        C199   1.285       .  A
C199       C1937   1.493       .  S
O200       Zr201   2.438       .  S
O200        H229   0.991       .  S
Zr201       O204   2.436       .  S
Zr201       O205   2.440       .  S
Zr201       O206   2.409       .  S
O202        C207   1.285       .  A
O203        H220   0.990       .  S
O203        H235   0.990       .  S
O204        H221   0.990       .  S
O205        H225   0.990       .  S
O205        H234   0.990       .  S
O206        C207   1.279       .  A
C207       C1985   1.489       .  S
O208        H227   0.990       .  S
O208        H231   0.991       .  S
O209        H223   0.990       .  S
O209        H230   0.990       .  S
O210        C214   1.285       .  A
O211        C214   1.285       .  A
O212        H222   0.990       .  S
O213        H226   0.990       .  S
C214       C1889   1.480       .  S
Zr237       O238   2.440       .  S
Zr237       O239   2.434       .  S
Zr237       O240   2.444       .  S
Zr237       O243   2.441       .  S
Zr237       O245   2.380       .  S
Zr237       O246   2.386       .  S
Zr237       O247   2.407       .  S
Zr237       O248   2.402       .  S
O238        H294   0.990       .  S
O238        H302   0.990       .  S
O239        C259   1.285       .  A
O240        C261   1.286       .  A
O241       Zr251   2.439       .  S
O241        C260   1.288       .  A
O242       Zr250   2.413       .  S
O242        C261   1.281       .  A
O243        C260   1.286       .  A
O244       Zr252   2.414       .  S
O244        C259   1.280       .  A
O245       Zr250   2.392       .  S
O245       Zr252   2.375       .  S
O246       Zr251   2.388       .  S
O246       Zr252   2.382       .  S
O246        H281   0.966       .  S
O247       Zr250   2.397       .  S
O247       Zr267   2.400       .  S
O247        H284   0.966       .  S
O248       Zr251   2.390       .  S
O248       Zr267   2.393       .  S
Zr249       O274   2.434       .  S
Zr249       O268   2.426       .  S
Zr249       O276   2.431       .  S
Zr249       O264   2.449       .  S
Zr249       O255   2.402       .  S
Zr249       O256   2.400       .  S
Zr249       O257   2.377       .  S
Zr249       O258   2.387       .  S
Zr250       O269   2.434       .  S
Zr250       O262   2.435       .  S
Zr250       O263   2.424       .  S
Zr250       O256   2.396       .  S
Zr250       O257   2.381       .  S
Zr251       O253   2.436       .  S
Zr251       O275   2.436       .  S
Zr251       O277   2.438       .  S
Zr251       O255   2.388       .  S
Zr251       O258   2.392       .  S
Zr252       O278   2.438       .  S
Zr252       O279   2.436       .  S
Zr252       O254   2.435       .  S
Zr252       O255   2.392       .  S
Zr252       O256   2.390       .  S
O253        H290   0.991       .  S
O254        H285   0.990       .  S
O254        H299   0.990       .  S
O256        H282   0.965       .  S
O257       Zr267   2.374       .  S
O258       Zr267   2.375       .  S
O258        H283   0.968       .  S
C259       C1841   1.484       .  S
C260       C1822   1.502       .  S
C261       C1769   1.480       .  S
O262        H298   0.989       .  S
O263        C265   1.284       .  A
O264        C265   1.286       .  A
C265       C1870   1.498       .  S
O266       Zr267   2.440       .  S
O266        H295   0.990       .  S
Zr267       O270   2.437       .  S
Zr267       O271   2.438       .  S
Zr267       O272   2.430       .  S
O268        C273   1.283       .  A
O269        H286   0.990       .  S
O269        H301   0.990       .  S
O270        H287   0.990       .  S
O271        H291   0.989       .  S
O271        H300   0.990       .  S
O272        C273   1.285       .  A
C273       C1745   1.485       .  S
O274        H293   0.990       .  S
O274        H297   0.989       .  S
O275        H289   0.990       .  S
O275        H296   0.990       .  S
O276        C280   1.285       .  A
O277        C280   1.286       .  A
O278        H288   0.990       .  S
O279        H292   0.990       .  S
C280       C1798   1.482       .  S
Zr303       O304   2.435       .  S
Zr303       O305   2.434       .  S
Zr303       O306   2.465       .  S
Zr303       O309   2.447       .  S
Zr303       O311   2.384       .  S
Zr303       O312   2.387       .  S
Zr303       O313   2.409       .  S
Zr303       O314   2.406       .  S
O304        H360   0.990       .  S
O304        H368   0.989       .  S
O305        C325   1.284       .  A
O306        C327   1.290       .  A
O307       Zr317   2.409       .  S
O307        C326   1.280       .  A
O308       Zr316   2.436       .  S
O308        C327   1.286       .  A
O309        C326   1.288       .  A
O310       Zr318   2.418       .  S
O310        C325   1.282       .  A
O311       Zr316   2.390       .  S
O311       Zr318   2.378       .  S
O312       Zr317   2.385       .  S
O312       Zr318   2.376       .  S
O312        H347   0.966       .  S
O313       Zr316   2.395       .  S
O313       Zr333   2.396       .  S
O313        H350   0.965       .  S
O314       Zr317   2.387       .  S
O314       Zr333   2.396       .  S
Zr315       O340   2.438       .  S
Zr315       O334   2.420       .  S
Zr315       O342   2.463       .  S
Zr315       O330   2.439       .  S
Zr315       O321   2.398       .  S
Zr315       O322   2.409       .  S
Zr315       O323   2.390       .  S
Zr315       O324   2.381       .  S
Zr316       O335   2.437       .  S
Zr316       O328   2.434       .  S
Zr316       O329   2.429       .  S
Zr316       O322   2.400       .  S
Zr316       O323   2.392       .  S
Zr317       O319   2.435       .  S
Zr317       O341   2.437       .  S
Zr317       O343   2.416       .  S
Zr317       O321   2.388       .  S
Zr317       O324   2.381       .  S
Zr318       O344   2.435       .  S
Zr318       O345   2.435       .  S
Zr318       O320   2.438       .  S
Zr318       O321   2.398       .  S
Zr318       O322   2.390       .  S
O319        H356   0.990       .  S
O320        H351   0.990       .  S
O320        H365   0.990       .  S
O322        H348   0.967       .  S
O323       Zr333   2.369       .  S
O324       Zr333   2.373       .  S
O324        H349   0.966       .  S
C325       C1630   1.481       .  S
C326       C1702   1.494       .  S
C327       C1721   1.499       .  S
O328        H364   0.990       .  S
O329        C331   1.285       .  A
O330        C331   1.286       .  A
C331       C1606   1.482       .  S
O332       Zr333   2.435       .  S
O332        H361   0.990       .  S
Zr333       O336   2.435       .  S
Zr333       O337   2.437       .  S
Zr333       O338   2.432       .  S
O334        C339   1.281       .  A
O335        H352   0.991       .  S
O335        H367   0.990       .  S
O336        H353   0.990       .  S
O337        H357   0.990       .  S
O337        H366   0.990       .  S
O338        C339   1.284       .  A
C339       C1649   1.473       .  S
O340        H359   0.990       .  S
O340        H363   0.990       .  S
O341        H355   0.990       .  S
O341        H362   0.990       .  S
O342        C346   1.290       .  A
O343        C346   1.283       .  A
O344        H354   0.990       .  S
O345        H358   0.990       .  S
C346       C1678   1.504       .  S
Zr369       O370   2.435       .  S
Zr369       O371   2.446       .  S
Zr369       O372   2.466       .  S
Zr369       O375   2.445       .  S
Zr369       O377   2.382       .  S
Zr369       O378   2.385       .  S
Zr369       O379   2.411       .  S
Zr369       O380   2.407       .  S
O370        H426   0.990       .  S
O370        H434   0.989       .  S
O371        C391   1.285       .  A
O372        C393   1.289       .  A
O373       Zr383   2.416       .  S
O373        C392   1.282       .  A
O374       Zr382   2.418       .  S
O374        C393   1.283       .  A
O375        C392   1.288       .  A
O376       Zr384   2.429       .  S
O376        C391   1.284       .  A
O377       Zr382   2.392       .  S
O377       Zr384   2.375       .  S
O378       Zr383   2.387       .  S
O378       Zr384   2.374       .  S
O378        H413   0.966       .  S
O379       Zr382   2.401       .  S
O379       Zr399   2.393       .  S
O379        H416   0.965       .  S
O380       Zr383   2.391       .  S
O380       Zr399   2.392       .  S
Zr381       O406   2.440       .  S
Zr381       O400   2.453       .  S
Zr381       O408   2.468       .  S
Zr381       O396   2.467       .  S
Zr381       O387   2.406       .  S
Zr381       O388   2.415       .  S
Zr381       O389   2.382       .  S
Zr381       O390   2.387       .  S
Zr382       O401   2.437       .  S
Zr382       O394   2.433       .  S
Zr382       O395   2.419       .  S
Zr382       O388   2.400       .  S
Zr382       O389   2.390       .  S
Zr383       O385   2.434       .  S
Zr383       O407   2.436       .  S
Zr383       O409   2.418       .  S
Zr383       O387   2.385       .  S
Zr383       O390   2.389       .  S
Zr384       O410   2.436       .  S
Zr384       O411   2.436       .  S
Zr384       O386   2.438       .  S
Zr384       O387   2.398       .  S
Zr384       O388   2.399       .  S
O385        H422   0.990       .  S
O386        H417   0.990       .  S
O386        H431   0.990       .  S
O388        H414   0.965       .  S
O389       Zr399   2.375       .  S
O390       Zr399   2.380       .  S
O390        H415   0.965       .  S
C391       C1505   1.499       .  S
C392       C1558   1.493       .  S
C393       C1481   1.490       .  S
O394        H430   0.990       .  S
O395        C397   1.281       .  A
O396        C397   1.291       .  A
C397       C1577   1.503       .  S
O398       Zr399   2.439       .  S
O398        H427   0.991       .  S
Zr399       O402   2.437       .  S
Zr399       O403   2.440       .  S
Zr399       O404   2.407       .  S
O400        C405   1.288       .  A
O401        H418   0.991       .  S
O401        H433   0.990       .  S
O402        H419   0.990       .  S
O403        H423   0.990       .  S
O403        H432   0.990       .  S
O404        C405   1.279       .  A
C405       C1462   1.479       .  S
O406        H425   0.990       .  S
O406        H429   0.990       .  S
O407        H421   0.990       .  S
O407        H428   0.989       .  S
O408        C412   1.291       .  A
O409        C412   1.282       .  A
O410        H420   0.990       .  S
O411        H424   0.990       .  S
C412       C1529   1.489       .  S
Zr435       O436   2.440       .  S
Zr435       O437   2.453       .  S
Zr435       O438   2.452       .  S
Zr435       O441   2.426       .  S
Zr435       O443   2.377       .  S
Zr435       O444   2.386       .  S
Zr435       O445   2.406       .  S
Zr435       O446   2.402       .  S
O436        H492   0.989       .  S
O436        H500   0.991       .  S
O437        C457   1.288       .  A
O438        C459   1.287       .  A
O439       Zr449   2.446       .  S
O439        C458   1.288       .  A
O440       Zr448   2.429       .  S
O440        C459   1.285       .  A
O441        C458   1.284       .  A
O442       Zr450   2.413       .  S
O442        C457   1.281       .  A
O443       Zr448   2.392       .  S
O443       Zr450   2.376       .  S
O444       Zr449   2.384       .  S
O444       Zr450   2.378       .  S
O444        H479   0.966       .  S
O445       Zr448   2.394       .  S
O445       Zr465   2.402       .  S
O445        H482   0.967       .  S
O446       Zr449   2.388       .  S
O446       Zr465   2.388       .  S
Zr447       O472   2.438       .  S
Zr447       O466   2.424       .  S
Zr447       O474   2.450       .  S
Zr447       O462   2.437       .  S
Zr447       O453   2.403       .  S
Zr447       O454   2.401       .  S
Zr447       O455   2.384       .  S
Zr447       O456   2.382       .  S
Zr448       O467   2.437       .  S
Zr448       O460   2.435       .  S
Zr448       O461   2.430       .  S
Zr448       O454   2.393       .  S
Zr448       O455   2.387       .  S
Zr449       O451   2.435       .  S
Zr449       O473   2.438       .  S
Zr449       O475   2.438       .  S
Zr449       O453   2.399       .  S
Zr449       O456   2.390       .  S
Zr450       O476   2.434       .  S
Zr450       O477   2.437       .  S
Zr450       O452   2.439       .  S
Zr450       O453   2.403       .  S
Zr450       O454   2.383       .  S
O451        H488   0.990       .  S
O452        H483   0.990       .  S
O452        H497   0.991       .  S
O454        H480   0.966       .  S
O455       Zr465   2.374       .  S
O456       Zr465   2.373       .  S
O456        H481   0.966       .  S
C457       C1361   1.481       .  S
C458       C1337   1.483       .  S
C459       C1385   1.499       .  S
O460        H496   0.990       .  S
O461        C463   1.285       .  A
O462        C463   1.287       .  A
C463       C1409   1.494       .  S
O464       Zr465   2.439       .  S
O464        H493   0.991       .  S
Zr465       O468   2.436       .  S
Zr465       O469   2.440       .  S
Zr465       O470   2.428       .  S
O466        C471   1.283       .  A
O467        H484   0.990       .  S
O467        H499   0.990       .  S
O468        H485   0.990       .  S
O469        H489   0.989       .  S
O469        H498   0.991       .  S
O470        C471   1.284       .  A
C471       C1313   1.480       .  S
O472        H491   0.990       .  S
O472        H495   0.990       .  S
O473        H487   0.990       .  S
O473        H494   0.990       .  S
O474        C478   1.288       .  A
O475        C478   1.287       .  A
O476        H486   0.990       .  S
O477        H490   0.990       .  S
C478       C1433   1.502       .  S
Zr501       O502   2.433       .  S
Zr501       O503   2.434       .  S
Zr501       O504   2.442       .  S
Zr501       O507   2.443       .  S
Zr501       O509   2.384       .  S
Zr501       O510   2.379       .  S
Zr501       O511   2.410       .  S
Zr501       O512   2.401       .  S
O502        H558   0.990       .  S
O502        H566   0.989       .  S
O503        C523   1.283       .  A
O504        C525   1.286       .  A
O505       Zr515   2.429       .  S
O505        C524   1.283       .  A
O506       Zr514   2.436       .  S
O506        C525   1.286       .  A
O507        C524   1.287       .  A
O508       Zr516   2.419       .  S
O508        C523   1.283       .  A
O509       Zr514   2.393       .  S
O509       Zr516   2.374       .  S
O510       Zr515   2.384       .  S
O510       Zr516   2.379       .  S
O510        H545   0.967       .  S
O511       Zr514   2.400       .  S
O511       Zr531   2.398       .  S
O511        H548   0.967       .  S
O512       Zr515   2.392       .  S
O512       Zr531   2.402       .  S
Zr513       O538   2.439       .  S
Zr513       O532   2.413       .  S
Zr513       O540   2.436       .  S
Zr513       O528   2.428       .  S
Zr513       O519   2.401       .  S
Zr513       O520   2.402       .  S
Zr513       O521   2.381       .  S
Zr513       O522   2.377       .  S
Zr514       O533   2.438       .  S
Zr514       O526   2.436       .  S
Zr514       O527   2.436       .  S
Zr514       O520   2.398       .  S
Zr514       O521   2.387       .  S
Zr515       O517   2.428       .  S
Zr515       O539   2.436       .  S
Zr515       O541   2.432       .  S
Zr515       O519   2.391       .  S
Zr515       O522   2.385       .  S
Zr516       O542   2.434       .  S
Zr516       O543   2.436       .  S
Zr516       O518   2.438       .  S
Zr516       O519   2.401       .  S
Zr516       O520   2.391       .  S
O517        H554   0.989       .  S
O518        H549   0.990       .  S
O518        H563   0.990       .  S
O520        H546   0.968       .  S
O521       Zr531   2.366       .  S
O522       Zr531   2.370       .  S
O522        H547   0.965       .  S
C523       C1289   1.497       .  S
C524       C1174   1.504       .  S
C525       C1198   1.489       .  S
O526        H562   0.990       .  S
O527        C529   1.287       .  A
O528        C529   1.285       .  A
C529       C1222   1.486       .  S
O530       Zr531   2.435       .  S
O530        H559   0.990       .  S
Zr531       O534   2.437       .  S
Zr531       O535   2.439       .  S
Zr531       O536   2.437       .  S
O532        C537   1.280       .  A
O533        H550   0.990       .  S
O533        H565   0.990       .  S
O534        H551   0.990       .  S
O535        H555   0.990       .  S
O535        H564   0.990       .  S
O536        C537   1.285       .  A
C537       C1270   1.481       .  S
O538        H557   0.990       .  S
O538        H561   0.990       .  S
O539        H553   0.990       .  S
O539        H560   0.990       .  S
O540        C544   1.286       .  A
O541        C544   1.285       .  A
O542        H552   0.990       .  S
O543        H556   0.990       .  S
C544       C1241   1.488       .  S
Zr567       O568   2.440       .  S
Zr567       O569   2.431       .  S
Zr567       O570   2.462       .  S
Zr567       O573   2.441       .  S
Zr567       O575   2.381       .  S
Zr567       O576   2.389       .  S
Zr567       O577   2.402       .  S
Zr567       O578   2.403       .  S
O568        H624   0.990       .  S
O568        H632   0.991       .  S
O569        C589   1.284       .  A
O570        C591   1.289       .  A
O571       Zr581   2.409       .  S
O571        C590   1.282       .  A
O572       Zr580   2.413       .  S
O572        C591   1.281       .  A
O573        C590   1.287       .  A
O574       Zr582   2.428       .  S
O574        C589   1.283       .  A
O575       Zr580   2.388       .  S
O575       Zr582   2.379       .  S
O576       Zr581   2.388       .  S
O576       Zr582   2.373       .  S
O576        H611   0.964       .  S
O577       Zr580   2.399       .  S
O577       Zr597   2.396       .  S
O577        H614   0.958       .  S
O578       Zr581   2.391       .  S
O578       Zr597   2.386       .  S
Zr579       O604   2.438       .  S
Zr579       O598   2.451       .  S
Zr579       O606   2.434       .  S
Zr579       O594   2.428       .  S
Zr579       O585   2.406       .  S
Zr579       O586   2.410       .  S
Zr579       O587   2.377       .  S
Zr579       O588   2.378       .  S
Zr580       O599   2.434       .  S
Zr580       O592   2.435       .  S
Zr580       O593   2.419       .  S
Zr580       O586   2.394       .  S
Zr580       O587   2.391       .  S
Zr581       O583   2.435       .  S
Zr581       O605   2.437       .  S
Zr581       O607   2.421       .  S
Zr581       O585   2.384       .  S
Zr581       O588   2.386       .  S
Zr582       O608   2.435       .  S
Zr582       O609   2.436       .  S
Zr582       O584   2.437       .  S
Zr582       O585   2.395       .  S
Zr582       O586   2.405       .  S
O583        H620   0.991       .  S
O584        H615   0.991       .  S
O584        H629   0.990       .  S
O586        H612   0.964       .  S
O587       Zr597   2.375       .  S
O588       Zr597   2.376       .  S
O588        H613   0.963       .  S
C589       C1073   1.480       .  S
C590       C1121   1.485       .  S
C591       C1049   1.492       .  S
O592        H628   0.990       .  S
O593        C595   1.281       .  A
O594        C595   1.283       .  A
C595       C1145   1.479       .  S
O596       Zr597   2.437       .  S
O596        H625   0.991       .  S
Zr597       O600   2.434       .  S
Zr597       O601   2.442       .  S
Zr597       O602   2.412       .  S
O598        C603   1.288       .  A
O599        H616   0.989       .  S
O599        H631   0.990       .  S
O600        H617   0.990       .  S
O601        H621   0.990       .  S
O601        H630   0.990       .  S
O602        C603   1.280       .  A
C603       C1025   1.490       .  S
O604        H623   0.990       .  S
O604        H627   0.990       .  S
O605        H619   0.990       .  S
O605        H626   0.990       .  S
O606        C610   1.284       .  A
O607        C610   1.284       .  A
O608        H618   0.990       .  S
O609        H622   0.990       .  S
C610       C1097   1.479       .  S
N633        C638   1.350   1_565  A
N633        C637   1.352   1_465  A
N633        H665   1.037   1_455  S
N634        C641   1.351   1_545  A
N634        C642   1.349   1_545  A
N635        C640   1.355   1_665  A
N635        C639   1.351   1_565  A
N635        H666   1.035       .  S
N636        C643   1.350       .  A
N636        C644   1.351       .  A
C637        C645   1.386       .  A
C637        C653   1.410   1_545  A
C638        C654   1.413       .  A
C638        C646   1.389       .  A
C639        C647   1.388       .  A
C639        C656   1.417       .  A
C640        C655   1.417   1_545  A
C640        C648   1.386   1_455  A
C641        C653   1.409       .  A
C641        C649   1.385       .  A
C642        C656   1.413   1_565  A
C642        C650   1.388       .  A
C643        C651   1.386       .  A
C643        C654   1.411   1_565  A
C644        C652   1.387       .  A
C644        C655   1.413       .  A
C645        C646   1.373   1_655  A
C645        H657   1.082       .  S
C646        H658   1.082       .  S
C647        C648   1.378       .  A
C647        H659   1.082       .  S
C648        H660   1.082   1_655  S
C649        C650   1.372       .  A
C649        H661   1.082       .  S
C650        H662   1.082       .  S
C651        C652   1.371       .  A
C651        H663   1.082       .  S
C652        H664   1.082       .  S
C653        C761   1.473       .  S
C654        C671   1.468       .  S
C655        C833   1.480       .  S
C656        C851   1.468   1_545  S
C667        N668   1.359   1_565  A
C667        N672   1.357       .  A
C667       C1294   1.481       .  S
N668        C669   1.358       .  A
C669        N670   1.355       .  A
C669       C1001   1.484       .  S
N670        C671   1.355       .  A
C671        N672   1.357   1_545  A
Zr673       O674   2.436       .  S
Zr673       O675   2.423       .  S
Zr673       O676   2.442       .  S
Zr673       O679   2.454       .  S
Zr673       O681   2.387       .  S
Zr673       O682   2.381       .  S
Zr673       O683   2.410       .  S
Zr673       O684   2.406       .  S
O674        H730   0.990       .  S
O674        H738   0.990       .  S
O675        C695   1.282       .  A
O676        C697   1.287       .  A
O677       Zr687   2.398       .  S
O677        C696   1.279       .  A
O678       Zr686   2.409       .  S
O678        C697   1.281       .  A
O679        C696   1.288       .  A
O680       Zr688   2.434       .  S
O680        C695   1.285       .  A
O681       Zr686   2.388       .  S
O681       Zr688   2.371       .  S
O682       Zr687   2.379       .  S
O682       Zr688   2.368       .  S
O682        H717   0.966       .  S
O683       Zr686   2.394       .  S
O683       Zr703   2.392       .  S
O683        H720   0.966       .  S
O684       Zr687   2.384       .  S
O684       Zr703   2.404       .  S
Zr685       O710   2.443       .  S
Zr685       O704   2.433       .  S
Zr685       O712   2.446       .  S
Zr685       O700   2.434       .  S
Zr685       O691   2.401       .  S
Zr685       O692   2.413       .  S
Zr685       O693   2.385       .  S
Zr685       O694   2.379       .  S
Zr686       O705   2.437       .  S
Zr686       O698   2.435       .  S
Zr686       O699   2.421       .  S
Zr686       O692   2.389       .  S
Zr686       O693   2.382       .  S
Zr687       O689   2.434       .  S
Zr687       O711   2.438       .  S
Zr687       O713   2.398       .  S
Zr687       O691   2.387       .  S
Zr687       O694   2.376       .  S
Zr688       O714   2.435       .  S
Zr688       O715   2.436       .  S
Zr688       O690   2.435       .  S
Zr688       O691   2.402       .  S
Zr688       O692   2.397       .  S
O689        H726   0.990       .  S
O690        H721   0.991       .  S
O690        H735   0.990       .  S
O692        H718   0.967       .  S
O693       Zr703   2.370       .  S
O694       Zr703   2.378       .  S
O694        H719   0.966       .  S
C695        C953   1.480       .  S
C696        C910   1.486       .  S
C697        C934   1.481       .  S
O698        H734   0.990       .  S
O699        C701   1.283       .  A
O700        C701   1.284       .  A
C701       C1006   1.469       .  S
O702       Zr703   2.440       .  S
O702        H731   0.990       .  S
Zr703       O706   2.438       .  S
Zr703       O707   2.437       .  S
Zr703       O708   2.431       .  S
O704        C709   1.285       .  A
O705        H722   0.989       .  S
O705        H737   0.991       .  S
O706        H723   0.990       .  S
O707        H727   0.989       .  S
O707        H736   0.990       .  S
O708        C709   1.285       .  A
C709        C881   1.492       .  S
O710        H729   0.991       .  S
O710        H733   0.989       .  S
O711        H725   0.991       .  S
O711        H732   0.990       .  S
O712        C716   1.287       .  A
O713        C716   1.278       .  A
O714        H724   0.990       .  S
O715        H728   0.990       .  S
C716        C977   1.479       .  S
C739        N740   1.351       .  A
C739        N744   1.355       .  A
C739        C982   1.463       .  S
N740        C741   1.353   1_455  A
C741        N742   1.358       .  A
C741       C1150   1.479       .  S
N742        C743   1.361   1_655  A
C743        N744   1.359       .  A
C745        N746   1.356       .  A
C745        N750   1.360   1_554  A
C745       C1582   1.481   1_554  S
N746        C747   1.357       .  A
C747        N748   1.357       .  A
C747        C958   1.485       .  S
N748        C749   1.359       .  A
C749        N750   1.362   1_554  A
C751        N752   1.355       .  A
C751        N756   1.358       .  A
C751        C929   1.477       .  S
N752        C753   1.351       .  A
C753        N754   1.355       .  A
C753       C1126   1.464       .  S
N754        C755   1.359       .  A
C755        N756   1.359       .  A
C757        N758   1.359       .  A
C757        N762   1.358       .  A
C757       C1414   1.491       .  S
N758        C759   1.358   1_565  A
C759        N760   1.358       .  A
C759       C1102   1.485       .  S
N760        C761   1.357   1_545  A
C761        N762   1.357       .  A
C763        N764   1.362       .  A
C763        N768   1.351       .  A
C763       C1078   1.492       .  S
N764        C765   1.362       .  A
C765        N766   1.360       .  A
N766        C767   1.356       .  A
C767        N768   1.350       .  A
C767       C1697   1.472   1_554  S
C769        N770   1.362       .  A
C769        N774   1.357       .  A
C769       C1342   1.502       .  S
N770        C771   1.364       .  A
C771        N772   1.362       .  A
N772        C773   1.359       .  A
C773        N774   1.355       .  A
C773       C1054   1.491       .  S
C775        N776   1.361       .  A
C775        N780   1.354       .  A
C775       C1030   1.493       .  S
N776        C777   1.364       .  A
C777        N778   1.363       .  A
N778        C779   1.361       .  A
C779        N780   1.352       .  A
C779       C1601   1.489       .  S
C781        N782   1.359       .  A
C781        N786   1.361       .  A
C781       C1265   1.496       .  S
N782        C783   1.357       .  A
C783        N784   1.355       .  A
C783        C905   1.478       .  S
N784        C785   1.355       .  A
C785        N786   1.359       .  A
C787        N788   1.357       .  A
C787        N792   1.360       .  A
C787       C1246   1.494       .  S
N788        C789   1.356   1_455  A
C789        N790   1.364       .  A
C789       C1438   1.492       .  S
N790        C791   1.365   1_655  A
C791        N792   1.362       .  A
C793        N794   1.360       .  A
C793        N798   1.356   1_556  A
C793       C1846   1.490       .  S
N794        C795   1.361   1_556  A
C795        N796   1.361       .  A
N796        C797   1.358       .  A
C797        N798   1.353       .  A
C797       C1217   1.483       .  S
C799        N800   1.358       .  A
C799        N804   1.355       .  A
C799       C1193   1.492       .  S
N800        C801   1.361       .  A
C801        N802   1.368       .  A
N802        C803   1.366       .  A
C803        N804   1.354       .  A
C803       C1390   1.494       .  S
C805        N806   1.360       .  A
C805        N810   1.355       .  A
C805       C1750   1.487       .  S
N806        C807   1.362       .  A
C807        N808   1.364       .  A
N808        C809   1.361       .  A
C809        N810   1.354       .  A
C809       C1169   1.482       .  S
C811        N812   1.359       .  A
C811        N816   1.355       .  A
C811       C1366   1.486       .  S
N812        C813   1.360       .  A
C813        N814   1.360       .  A
N814        C815   1.359       .  A
C815        N816   1.354       .  A
C815       C1966   1.484   1_554  S
C817        N818   1.356       .  A
C817        N822   1.361       .  A
C817       C1553   1.482       .  S
N818        C819   1.357       .  A
C819        N820   1.358       .  A
C819        C886   1.494       .  S
N820        C821   1.359       .  A
C821        N822   1.362       .  A
C823        N824   1.362       .  A
C823        N828   1.365       .  A
C823       C1726   1.508       .  S
N824        C825   1.360   1_655  A
C825        N826   1.360       .  A
C825       C1534   1.494       .  S
N826        C827   1.362   1_455  A
C827        N828   1.365       .  A
C829        N830   1.356   1_545  A
C829        N834   1.362       .  A
C829       C1510   1.494       .  S
N830        C831   1.357       .  A
C831        N832   1.358       .  A
C831       C1865   1.483       .  S
N832        C833   1.360       .  A
C833        N834   1.364   1_565  A
C835        N836   1.359       .  A
C835        N840   1.363       .  A
C835       C1673   1.501       .  S
N836        C837   1.358       .  A
C837        N838   1.359       .  A
C837       C1486   1.488       .  S
N838        C839   1.360       .  A
C839        N840   1.363       .  A
C841        N842   1.360       .  A
C841        N846   1.358       .  A
C841       C1457   1.490       .  S
N842        C843   1.361       .  A
C843        N844   1.363       .  A
N844        C845   1.362       .  A
C845        N846   1.357       .  A
C845       C1817   1.487       .  S
C847        N848   1.358   1_545  A
C847        N852   1.359       .  A
C847       C1654   1.478       .  S
N848        C849   1.358       .  A
C849        N850   1.354       .  A
C849       C1990   1.478       .  S
N850        C851   1.353       .  A
C851        N852   1.358   1_565  A
C853        N854   1.357       .  A
C853        N858   1.359       .  A
C853       C2014   1.487       .  S
N854        C855   1.358   1_655  A
C855        N856   1.360       .  A
C855       C1793   1.491       .  S
N856        C857   1.359   1_455  A
C857        N858   1.358       .  A
C859        N860   1.357       .  A
C859        N864   1.358       .  A
C859       C1942   1.479       .  S
N860        C861   1.357       .  A
C861        N862   1.358       .  A
N862        C863   1.360       .  A
C863        N864   1.358       .  A
C863       C1774   1.488       .  S
C865        N866   1.354       .  A
C865        N870   1.358       .  A
C865       C1625   1.478       .  S
N866        C867   1.353       .  A
C867        N868   1.353       .  A
C867       C1918   1.478       .  S
N868        C869   1.354       .  A
C869        N870   1.359       .  A
C871        N872   1.358       .  A
C871        N876   1.354       .  A
C871       C1318   1.483       .  S
N872        C873   1.361       .  A
C873        N874   1.362       .  A
N874        C875   1.362       .  A
C875        N876   1.355       .  A
C875       C1894   1.491       .  S
C877        C878   1.407       .  A
C877        C882   1.400       .  A
C877        C891   1.445       .  S
C878        C879   1.400       .  A
C878        C883   1.482       .  S
C879        C880   1.402       .  A
C879        H898   1.085       .  S
C880        C881   1.419       .  A
C880        C892   1.444       .  S
C881        C882   1.409       .  A
C882        H897   1.084       .  S
C883        C884   1.401       .  A
C883        C888   1.406       .  A
C884        C885   1.405       .  A
C884        H899   1.085       .  S
C885        C886   1.421       .  A
C885        C889   1.444       .  S
C886        C887   1.409       .  A
C887        C888   1.396       .  A
C887        H900   1.084       .  S
C888        C890   1.445       .  S
C889        N893   1.158       .  T
C890        N894   1.157       .  T
C891        N896   1.157       .  T
C892        N895   1.157       .  T
C901        C902   1.410       .  A
C901        C906   1.399       .  A
C901        C915   1.444       .  S
C902        C903   1.402       .  A
C902        C907   1.482       .  S
C903        C904   1.398       .  A
C903        H922   1.085       .  S
C904        C905   1.414       .  A
C904        C916   1.444       .  S
C905        C906   1.405       .  A
C906        H921   1.085       .  S
C907        C908   1.406       .  A
C907        C912   1.407       .  A
C908        C909   1.407       .  A
C908        H923   1.085       .  S
C909        C910   1.413       .  A
C909        C913   1.442       .  S
C910        C911   1.408       .  A
C911        C912   1.391       .  A
C911        H924   1.085       .  S
C912        C914   1.446       .  S
C913        N917   1.157       .  T
C914        N918   1.157       .  T
C915        N920   1.157       .  T
C916        N919   1.157       .  T
C925        C926   1.407       .  A
C925        C930   1.394       .  A
C925        C939   1.445       .  S
C926        C927   1.402       .  A
C926        C931   1.477       .  S
C927        C928   1.401       .  A
C927        H946   1.085       .  S
C928        C929   1.414       .  A
C928        C940   1.444       .  S
C929        C930   1.405       .  A
C930        H945   1.085       .  S
C931        C932   1.403       .  A
C931        C936   1.406       .  A
C932        C933   1.400       .  A
C932        H947   1.085       .  S
C933        C934   1.413       .  A
C933        C937   1.444       .  S
C934        C935   1.408       .  A
C935        C936   1.397       .  A
C935        H948   1.085       .  S
C936        C938   1.445       .  S
C937        N941   1.157       .  T
C938        N942   1.157       .  T
C939        N944   1.157       .  T
C940        N943   1.157       .  T
C949        C950   1.409       .  A
C949        C954   1.401       .  A
C949        C963   1.444       .  S
C950        C951   1.400       .  A
C950        C955   1.479       .  S
C951        C952   1.398       .  A
C951        H970   1.085       .  S
C952        C953   1.413       .  A
C952        C964   1.443       .  S
C953        C954   1.407       .  A
C954        H969   1.085       .  S
C955        C956   1.401       .  A
C955        C960   1.407       .  A
C956        C957   1.404       .  A
C956        H971   1.085       .  S
C957        C958   1.418       .  A
C957        C961   1.444       .  S
C958        C959   1.405       .  A
C959        C960   1.394       .  A
C959        H972   1.084       .  S
C960        C962   1.444       .  S
C961        N965   1.157       .  T
C962        N966   1.157       .  T
C963        N968   1.157       .  T
C964        N967   1.157       .  T
C973        C974   1.409       .  A
C973        C978   1.399       .  A
C973        C987   1.444       .  S
C974        C975   1.397       .  A
C974        C979   1.475       .  S
C975        C976   1.397       .  A
C975        H994   1.085       .  S
C976        C977   1.419       .  A
C976        C988   1.444       .  S
C977        C978   1.404       .  A
C978        H993   1.085       .  S
C979        C980   1.400       .  A
C979        C984   1.410       .  A
C980        C981   1.396       .  A
C980        H995   1.085       .  S
C981        C982   1.409       .  A
C981        C985   1.445       .  S
C982        C983   1.400       .  A
C983        C984   1.400       .  A
C983        H996   1.085       .  S
C984        C986   1.444       .  S
C985        N989   1.157       .  T
C986        N990   1.157       .  T
C987        N992   1.157       .  T
C988        N991   1.157       .  T
C997        C998   1.406       .  A
C997       C1002   1.402       .  A
C997       C1011   1.443       .  S
C998        C999   1.400       .  A
C998       C1003   1.479       .  S
C999       C1000   1.397       .  A
C999       H1018   1.085       .  S
C1000      C1001   1.414       .  A
C1000      C1012   1.444       .  S
C1001      C1002   1.410       .  A
C1002      H1017   1.084       .  S
C1003      C1004   1.402       .  A
C1003      C1008   1.411       .  A
C1004      C1005   1.399       .  A
C1004      H1019   1.085       .  S
C1005      C1006   1.410       .  A
C1005      C1009   1.444       .  S
C1006      C1007   1.401       .  A
C1007      C1008   1.400       .  A
C1007      H1020   1.085       .  S
C1008      C1010   1.444       .  S
C1009      N1013   1.157       .  T
C1010      N1014   1.157       .  T
C1011      N1016   1.157       .  T
C1012      N1015   1.157       .  T
C1021      C1022   1.412       .  A
C1021      C1026   1.403       .  A
C1021      C1035   1.444       .  S
C1022      C1023   1.399       .  A
C1022      C1027   1.488       .  S
C1023      C1024   1.401       .  A
C1023      H1042   1.085       .  S
C1024      C1025   1.420       .  A
C1024      C1036   1.444       .  S
C1025      C1026   1.406       .  A
C1026      H1041   1.084       .  S
C1027      C1028   1.406       .  A
C1027      C1032   1.408       .  A
C1028      C1029   1.409       .  A
C1028      H1043   1.084       .  S
C1029      C1030   1.417       .  A
C1029      C1033   1.443       .  S
C1030      C1031   1.409       .  A
C1031      C1032   1.393       .  A
C1031      H1044   1.084       .  S
C1032      C1034   1.445       .  S
C1033      N1037   1.157       .  T
C1034      N1038   1.157       .  T
C1035      N1040   1.157       .  T
C1036      N1039   1.157       .  T
C1045      C1046   1.412       .  A
C1045      C1050   1.406       .  A
C1045      C1059   1.443       .  S
C1046      C1047   1.401       .  A
C1046      C1051   1.492       .  S
C1047      C1048   1.401       .  A
C1047      H1066   1.085       .  S
C1048      C1049   1.419       .  A
C1048      C1060   1.444       .  S
C1049      C1050   1.407       .  A
C1050      H1065   1.085       .  S
C1051      C1052   1.402       .  A
C1051      C1056   1.413       .  A
C1052      C1053   1.400       .  A
C1052      H1067   1.085       .  S
C1053      C1054   1.418       .  A
C1053      C1057   1.445       .  S
C1054      C1055   1.407       .  A
C1055      C1056   1.405       .  A
C1055      H1068   1.084       .  S
C1056      C1058   1.443       .  S
C1057      N1061   1.157       .  T
C1058      N1062   1.157       .  T
C1059      N1064   1.157       .  T
C1060      N1063   1.157       .  T
C1069      C1070   1.409       .  A
C1069      C1074   1.400       .  A
C1069      C1083   1.444       .  S
C1070      C1071   1.400       .  A
C1070      C1075   1.478       .  S
C1071      C1072   1.399       .  A
C1071      H1090   1.085       .  S
C1072      C1073   1.414       .  A
C1072      C1084   1.443       .  S
C1073      C1074   1.405       .  A
C1074      H1089   1.085       .  S
C1075      C1076   1.396       .  A
C1075      C1080   1.407       .  A
C1076      C1077   1.395       .  A
C1076      H1091   1.086       .  S
C1077      C1078   1.424       .  A
C1077      C1081   1.446       .  S
C1078      C1079   1.409       .  A
C1079      C1080   1.403       .  A
C1079      H1092   1.084       .  S
C1080      C1082   1.443       .  S
C1081      N1085   1.158       .  T
C1082      N1086   1.157       .  T
C1083      N1088   1.157       .  T
C1084      N1087   1.157       .  T
C1093      C1094   1.407       .  A
C1093      C1098   1.395       .  A
C1093      C1107   1.444       .  S
C1094      C1095   1.402       .  A
C1094      C1099   1.479       .  S
C1095      C1096   1.404       .  A
C1095      H1114   1.085       .  S
C1096      C1097   1.415       .  A
C1096      C1108   1.443       .  S
C1097      C1098   1.404       .  A
C1098      H1113   1.085       .  S
C1099      C1100   1.400       .  A
C1099      C1104   1.406       .  A
C1100      C1101   1.396       .  A
C1100      H1115   1.085       .  S
C1101      C1102   1.416       .  A
C1101      C1105   1.444       .  S
C1102      C1103   1.409       .  A
C1103      C1104   1.403       .  A
C1103      H1116   1.084       .  S
C1104      C1106   1.443       .  S
C1105      N1109   1.157       .  T
C1106      N1110   1.157       .  T
C1107      N1112   1.157       .  T
C1108      N1111   1.157       .  T
C1117      C1118   1.408       .  A
C1117      C1122   1.399       .  A
C1117      C1131   1.445       .  S
C1118      C1119   1.403       .  A
C1118      C1123   1.482       .  S
C1119      C1120   1.399       .  A
C1119      H1138   1.085       .  S
C1120      C1121   1.414       .  A
C1120      C1132   1.444       .  S
C1121      C1122   1.409       .  A
C1122      H1137   1.085       .  S
C1123      C1124   1.404       .  A
C1123      C1128   1.412       .  A
C1124      C1125   1.399       .  A
C1124      H1139   1.085       .  S
C1125      C1126   1.408       .  A
C1125      C1129   1.444       .  S
C1126      C1127   1.400       .  A
C1127      C1128   1.399       .  A
C1127      H1140   1.085       .  S
C1128      C1130   1.444       .  S
C1129      N1133   1.157       .  T
C1130      N1134   1.157       .  T
C1131      N1136   1.157       .  T
C1132      N1135   1.157       .  T
C1141      C1142   1.409       .  A
C1141      C1146   1.395       .  A
C1141      C1155   1.444       .  S
C1142      C1143   1.400       .  A
C1142      C1147   1.477       .  S
C1143      C1144   1.401       .  A
C1143      H1162   1.085       .  S
C1144      C1145   1.416       .  A
C1144      C1156   1.443       .  S
C1145      C1146   1.405       .  A
C1146      H1161   1.085       .  S
C1147      C1148   1.403       .  A
C1147      C1152   1.406       .  A
C1148      C1149   1.402       .  A
C1148      H1163   1.085       .  S
C1149      C1150   1.413       .  A
C1149      C1153   1.443       .  S
C1150      C1151   1.407       .  A
C1151      C1152   1.395       .  A
C1151      H1164   1.085       .  S
C1152      C1154   1.444       .  S
C1153      N1157   1.157       .  T
C1154      N1158   1.157       .  T
C1155      N1160   1.157       .  T
C1156      N1159   1.157       .  T
C1165      C1166   1.414       .  A
C1165      C1170   1.406       .  A
C1165      C1179   1.443       .  S
C1166      C1167   1.402       .  A
C1166      C1171   1.492       .  S
C1167      C1168   1.401       .  A
C1167      H1186   1.085       .  S
C1168      C1169   1.413       .  A
C1168      C1180   1.444       .  S
C1169      C1170   1.404       .  A
C1170      H1185   1.085       .  S
C1171      C1172   1.400       .  A
C1171      C1176   1.411       .  A
C1172      C1173   1.403       .  A
C1172      H1187   1.085       .  S
C1173      C1174   1.424       .  A
C1173      C1177   1.444       .  S
C1174      C1175   1.411       .  A
C1175      C1176   1.405       .  A
C1175      H1188   1.084       .  S
C1176      C1178   1.444       .  S
C1177      N1181   1.157       .  T
C1178      N1182   1.157       .  T
C1179      N1184   1.157       .  T
C1180      N1183   1.157       .  T
C1189      C1190   1.407       .  A
C1189      C1194   1.393       .  A
C1189      C1203   1.445       .  S
C1190      C1191   1.403       .  A
C1190      C1195   1.484       .  S
C1191      C1192   1.407       .  A
C1191      H1210   1.085       .  S
C1192      C1193   1.420       .  A
C1192      C1204   1.444       .  S
C1193      C1194   1.408       .  A
C1194      H1209   1.084       .  S
C1195      C1196   1.400       .  A
C1195      C1200   1.408       .  A
C1196      C1197   1.400       .  A
C1196      H1211   1.085       .  S
C1197      C1198   1.418       .  A
C1197      C1201   1.442       .  S
C1198      C1199   1.409       .  A
C1199      C1200   1.402       .  A
C1199      H1212   1.085       .  S
C1200      C1202   1.444       .  S
C1201      N1205   1.157       .  T
C1202      N1206   1.157       .  T
C1203      N1208   1.157       .  T
C1204      N1207   1.158       .  T
C1213      C1214   1.409       .  A
C1213      C1218   1.398       .  A
C1213      C1227   1.445       .  S
C1214      C1215   1.404       .  A
C1214      C1219   1.485       .  S
C1215      C1216   1.402       .  A
C1215      H1234   1.085       .  S
C1216      C1217   1.414       .  A
C1216      C1228   1.443       .  S
C1217      C1218   1.407       .  A
C1218      H1233   1.085       .  S
C1219      C1220   1.403       .  A
C1219      C1224   1.409       .  A
C1220      C1221   1.401       .  A
C1220      H1235   1.085       .  S
C1221      C1222   1.417       .  A
C1221      C1225   1.445       .  S
C1222      C1223   1.406       .  A
C1223      C1224   1.399       .  A
C1223      H1236   1.085       .  S
C1224      C1226   1.444       .  S
C1225      N1229   1.157       .  T
C1226      N1230   1.157       .  T
C1227      N1232   1.157       .  T
C1228      N1231   1.157       .  T
C1237      C1238   1.410       .  A
C1237      C1242   1.402       .  A
C1237      C1251   1.443       .  S
C1238      C1239   1.400       .  A
C1238      C1243   1.485       .  S
C1239      C1240   1.400       .  A
C1239      H1258   1.085       .  S
C1240      C1241   1.417       .  A
C1240      C1252   1.443       .  S
C1241      C1242   1.407       .  A
C1242      H1257   1.084       .  S
C1243      C1244   1.403       .  A
C1243      C1248   1.408       .  A
C1244      C1245   1.407       .  A
C1244      H1259   1.085       .  S
C1245      C1246   1.419       .  A
C1245      C1249   1.443       .  S
C1246      C1247   1.408       .  A
C1247      C1248   1.397       .  A
C1247      H1260   1.083       .  S
C1248      C1250   1.446       .  S
C1249      N1253   1.157       .  T
C1250      N1254   1.157       .  T
C1251      N1256   1.157       .  T
C1252      N1255   1.157       .  T
C1261      C1262   1.407       .  A
C1261      C1266   1.401       .  A
C1261      C1275   1.444       .  S
C1262      C1263   1.399       .  A
C1262      C1267   1.482       .  S
C1263      C1264   1.400       .  A
C1263      H1282   1.085       .  S
C1264      C1265   1.422       .  A
C1264      C1276   1.444       .  S
C1265      C1266   1.411       .  A
C1266      H1281   1.084       .  S
C1267      C1268   1.402       .  A
C1267      C1272   1.409       .  A
C1268      C1269   1.401       .  A
C1268      H1283   1.085       .  S
C1269      C1270   1.416       .  A
C1269      C1273   1.444       .  S
C1270      C1271   1.404       .  A
C1271      C1272   1.398       .  A
C1271      H1284   1.085       .  S
C1272      C1274   1.444       .  S
C1273      N1277   1.157       .  T
C1274      N1278   1.157       .  T
C1275      N1280   1.157       .  T
C1276      N1279   1.158       .  T
C1285      C1286   1.405       .  A
C1285      C1290   1.396       .  A
C1285      C1299   1.445       .  S
C1286      C1287   1.400       .  A
C1286      C1291   1.480       .  S
C1287      C1288   1.404       .  A
C1287      H1306   1.085       .  S
C1288      C1289   1.423       .  A
C1288      C1300   1.444       .  S
C1289      C1290   1.411       .  A
C1290      H1305   1.084       .  S
C1291      C1292   1.403       .  A
C1291      C1296   1.406       .  A
C1292      C1293   1.403       .  A
C1292      H1307   1.085       .  S
C1293      C1294   1.416       .  A
C1293      C1297   1.445       .  S
C1294      C1295   1.404       .  A
C1295      C1296   1.397       .  A
C1295      H1308   1.083       .  S
C1296      C1298   1.443       .  S
C1297      N1301   1.158       .  T
C1298      N1302   1.157       .  T
C1299      N1304   1.157       .  T
C1300      N1303   1.157       .  T
C1309      C1310   1.409       .  A
C1309      C1314   1.401       .  A
C1309      C1323   1.444       .  S
C1310      C1311   1.401       .  A
C1310      C1315   1.481       .  S
C1311      C1312   1.400       .  A
C1311      H1330   1.085       .  S
C1312      C1313   1.412       .  A
C1312      C1324   1.444       .  S
C1313      C1314   1.406       .  A
C1314      H1329   1.085       .  S
C1315      C1316   1.400       .  A
C1315      C1320   1.408       .  A
C1316      C1317   1.397       .  A
C1316      H1331   1.085       .  S
C1317      C1318   1.416       .  A
C1317      C1321   1.445       .  S
C1318      C1319   1.407       .  A
C1319      C1320   1.404       .  A
C1319      H1332   1.084       .  S
C1320      C1322   1.443       .  S
C1321      N1325   1.157       .  T
C1322      N1326   1.157       .  T
C1323      N1328   1.157       .  T
C1324      N1327   1.157       .  T
C1333      C1334   1.415       .  A
C1333      C1338   1.401       .  A
C1333      C1347   1.445       .  S
C1334      C1335   1.404       .  A
C1334      C1339   1.493       .  S
C1335      C1336   1.405       .  A
C1335      H1354   1.084       .  S
C1336      C1337   1.411       .  A
C1336      C1348   1.443       .  S
C1337      C1338   1.404       .  A
C1338      H1353   1.085       .  S
C1339      C1340   1.406       .  A
C1339      C1344   1.408       .  A
C1340      C1341   1.410       .  A
C1340      H1355   1.085       .  S
C1341      C1342   1.421       .  A
C1341      C1345   1.444       .  S
C1342      C1343   1.410       .  A
C1343      C1344   1.396       .  A
C1343      H1356   1.083       .  S
C1344      C1346   1.445       .  S
C1345      N1349   1.158       .  T
C1346      N1350   1.157       .  T
C1347      N1352   1.157       .  T
C1348      N1351   1.157       .  T
C1357      C1358   1.408       .  A
C1357      C1362   1.402       .  A
C1357      C1371   1.444       .  S
C1358      C1359   1.399       .  A
C1358      C1363   1.479       .  S
C1359      C1360   1.400       .  A
C1359      H1378   1.085       .  S
C1360      C1361   1.416       .  A
C1360      C1372   1.444       .  S
C1361      C1362   1.406       .  A
C1362      H1377   1.085       .  S
C1363      C1364   1.402       .  A
C1363      C1368   1.406       .  A
C1364      C1365   1.404       .  A
C1364      H1379   1.085       .  S
C1365      C1366   1.417       .  A
C1365      C1369   1.444       .  S
C1366      C1367   1.408       .  A
C1367      C1368   1.395       .  A
C1367      H1380   1.085       .  S
C1368      C1370   1.445       .  S
C1369      N1373   1.157       .  T
C1370      N1374   1.157       .  T
C1371      N1376   1.157       .  T
C1372      N1375   1.157       .  T
C1381      C1382   1.407       .  A
C1381      C1386   1.402       .  A
C1381      C1395   1.444       .  S
C1382      C1383   1.404       .  A
C1382      C1387   1.492       .  S
C1383      C1384   1.408       .  A
C1383      H1402   1.085       .  S
C1384      C1385   1.420       .  A
C1384      C1396   1.444       .  S
C1385      C1386   1.411       .  A
C1386      H1401   1.084       .  S
C1387      C1388   1.406       .  A
C1387      C1392   1.407       .  A
C1388      C1389   1.407       .  A
C1388      H1403   1.085       .  S
C1389      C1390   1.414       .  A
C1389      C1393   1.442       .  S
C1390      C1391   1.411       .  A
C1391      C1392   1.402       .  A
C1391      H1404   1.085       .  S
C1392      C1394   1.444       .  S
C1393      N1397   1.157       .  T
C1394      N1398   1.157       .  T
C1395      N1400   1.157       .  T
C1396      N1399   1.158       .  T
C1405      C1406   1.406       .  A
C1405      C1410   1.401       .  A
C1405      C1419   1.444       .  S
C1406      C1407   1.398       .  A
C1406      C1411   1.480       .  S
C1407      C1408   1.399       .  A
C1407      H1426   1.085       .  S
C1408      C1409   1.421       .  A
C1408      C1420   1.444       .  S
C1409      C1410   1.411       .  A
C1410      H1425   1.084       .  S
C1411      C1412   1.400       .  A
C1411      C1416   1.405       .  A
C1412      C1413   1.399       .  A
C1412      H1427   1.085       .  S
C1413      C1414   1.419       .  A
C1413      C1417   1.444       .  S
C1414      C1415   1.411       .  A
C1415      C1416   1.401       .  A
C1415      H1428   1.084       .  S
C1416      C1418   1.444       .  S
C1417      N1421   1.157       .  T
C1418      N1422   1.157       .  T
C1419      N1424   1.157       .  T
C1420      N1423   1.157       .  T
C1429      C1430   1.407       .  A
C1429      C1434   1.402       .  A
C1429      C1443   1.444       .  S
C1430      C1431   1.403       .  A
C1430      C1435   1.491       .  S
C1431      C1432   1.408       .  A
C1431      H1450   1.085       .  S
C1432      C1433   1.421       .  A
C1432      C1444   1.444       .  S
C1433      C1434   1.411       .  A
C1434      H1449   1.084       .  S
C1435      C1436   1.399       .  A
C1435      C1440   1.412       .  A
C1436      C1437   1.402       .  A
C1436      H1451   1.085       .  S
C1437      C1438   1.419       .  A
C1437      C1441   1.444       .  S
C1438      C1439   1.407       .  A
C1439      C1440   1.407       .  A
C1439      H1452   1.084       .  S
C1440      C1442   1.443       .  S
C1441      N1445   1.157   1_655  T
C1442      N1446   1.157       .  T
C1443      N1448   1.157       .  T
C1444      N1447   1.158       .  T
C1453      C1454   1.414       .  A
C1453      C1458   1.405       .  A
C1453      C1467   1.444       .  S
C1454      C1455   1.402       .  A
C1454      C1459   1.494       .  S
C1455      C1456   1.400       .  A
C1455      H1474   1.085       .  S
C1456      C1457   1.417       .  A
C1456      C1468   1.445       .  S
C1457      C1458   1.407       .  A
C1458      H1473   1.084       .  S
C1459      C1460   1.409       .  A
C1459      C1464   1.414       .  A
C1460      C1461   1.405       .  A
C1460      H1475   1.084       .  S
C1461      C1462   1.409       .  A
C1461      C1465   1.444       .  S
C1462      C1463   1.404       .  A
C1463      C1464   1.400       .  A
C1463      H1476   1.085       .  S
C1464      C1466   1.445       .  S
C1465      N1469   1.157       .  T
C1466      N1470   1.157       .  T
C1467      N1472   1.157       .  T
C1468      N1471   1.157       .  T
C1477      C1478   1.410       .  A
C1477      C1482   1.401       .  A
C1477      C1491   1.444       .  S
C1478      C1479   1.404       .  A
C1478      C1483   1.492       .  S
C1479      C1480   1.406       .  A
C1479      H1498   1.085       .  S
C1480      C1481   1.416       .  A
C1480      C1492   1.441       .  S
C1481      C1482   1.408       .  A
C1482      H1497   1.085       .  S
C1483      C1484   1.405       .  A
C1483      C1488   1.414       .  A
C1484      C1485   1.406       .  A
C1484      H1499   1.085       .  S
C1485      C1486   1.415       .  A
C1485      C1489   1.443       .  S
C1486      C1487   1.405       .  A
C1487      C1488   1.400       .  A
C1487      H1500   1.085       .  S
C1488      C1490   1.445       .  S
C1489      N1493   1.157       .  T
C1490      N1494   1.157       .  T
C1491      N1496   1.157       .  T
C1492      N1495   1.157       .  T
C1501      C1502   1.410       .  A
C1501      C1506   1.400       .  A
C1501      C1515   1.444       .  S
C1502      C1503   1.405       .  A
C1502      C1507   1.495       .  S
C1503      C1504   1.408       .  A
C1503      H1522   1.085       .  S
C1504      C1505   1.419       .  A
C1504      C1516   1.444       .  S
C1505      C1506   1.409       .  A
C1506      H1521   1.085       .  S
C1507      C1508   1.406       .  A
C1507      C1512   1.411       .  A
C1508      C1509   1.406       .  A
C1508      H1523   1.084       .  S
C1509      C1510   1.415       .  A
C1509      C1513   1.443       .  S
C1510      C1511   1.409       .  A
C1511      C1512   1.403       .  A
C1511      H1524   1.085       .  S
C1512      C1514   1.445       .  S
C1513      N1517   1.157       .  T
C1514      N1518   1.157       .  T
C1515      N1520   1.157       .  T
C1516      N1519   1.158       .  T
C1525      C1526   1.414       .  A
C1525      C1530   1.410       .  A
C1525      C1539   1.443       .  S
C1526      C1527   1.402       .  A
C1526      C1531   1.496       .  S
C1527      C1528   1.402       .  A
C1527      H1546   1.085       .  S
C1528      C1529   1.414       .  A
C1528      C1540   1.444       .  S
C1529      C1530   1.406       .  A
C1530      H1545   1.085       .  S
C1531      C1532   1.404       .  A
C1531      C1536   1.412       .  A
C1532      C1533   1.409       .  A
C1532      H1547   1.084       .  S
C1533      C1534   1.417       .  A
C1533      C1537   1.443       .  S
C1534      C1535   1.406       .  A
C1535      C1536   1.403       .  A
C1535      H1548   1.085       .  S
C1536      C1538   1.444       .  S
C1537      N1541   1.157       .  T
C1538      N1542   1.157       .  T
C1539      N1544   1.157       .  T
C1540      N1543   1.157       .  T
C1549      C1550   1.412       .  A
C1549      C1554   1.404       .  A
C1549      C1563   1.444       .  S
C1550      C1551   1.400       .  A
C1550      C1555   1.486       .  S
C1551      C1552   1.398       .  A
C1551      H1570   1.085       .  S
C1552      C1553   1.416       .  A
C1552      C1564   1.444       .  S
C1553      C1554   1.405       .  A
C1554      H1569   1.085       .  S
C1555      C1556   1.398       .  A
C1555      C1560   1.410       .  A
C1556      C1557   1.398       .  A
C1556      H1571   1.085       .  S
C1557      C1558   1.421       .  A
C1557      C1561   1.444       .  S
C1558      C1559   1.409       .  A
C1559      C1560   1.403       .  A
C1559      H1572   1.084       .  S
C1560      C1562   1.444       .  S
C1561      N1565   1.157       .  T
C1562      N1566   1.157       .  T
C1563      N1568   1.157       .  T
C1564      N1567   1.157       .  T
C1573      C1574   1.411       .  A
C1573      C1578   1.404       .  A
C1573      C1587   1.443       .  S
C1574      C1575   1.399       .  A
C1574      C1579   1.491       .  S
C1575      C1576   1.403       .  A
C1575      H1594   1.085       .  S
C1576      C1577   1.425       .  A
C1576      C1588   1.444       .  S
C1577      C1578   1.409       .  A
C1578      H1593   1.084       .  S
C1579      C1580   1.403       .  A
C1579      C1584   1.414       .  A
C1580      C1581   1.401       .  A
C1580      H1595   1.085       .  S
C1581      C1582   1.413       .  A
C1581      C1585   1.444       .  S
C1582      C1583   1.403       .  A
C1583      C1584   1.405       .  A
C1583      H1596   1.085       .  S
C1584      C1586   1.443       .  S
C1585      N1589   1.157   1_556  T
C1586      N1590   1.157       .  T
C1587      N1592   1.157       .  T
C1588      N1591   1.157       .  T
C1597      C1598   1.406       .  A
C1597      C1602   1.398       .  A
C1597      C1611   1.445       .  S
C1598      C1599   1.404       .  A
C1598      C1603   1.483       .  S
C1599      C1600   1.404       .  A
C1599      H1618   1.085       .  S
C1600      C1601   1.414       .  A
C1600      C1612   1.443       .  S
C1601      C1602   1.410       .  A
C1602      H1617   1.085       .  S
C1603      C1604   1.400       .  A
C1603      C1608   1.411       .  A
C1604      C1605   1.400       .  A
C1604      H1619   1.085       .  S
C1605      C1606   1.414       .  A
C1605      C1609   1.443       .  S
C1606      C1607   1.406       .  A
C1607      C1608   1.402       .  A
C1607      H1620   1.085       .  S
C1608      C1610   1.444       .  S
C1609      N1613   1.157       .  T
C1610      N1614   1.157       .  T
C1611      N1616   1.157       .  T
C1612      N1615   1.157       .  T
C1621      C1622   1.406       .  A
C1621      C1626   1.394       .  A
C1621      C1635   1.444       .  S
C1622      C1623   1.403       .  A
C1622      C1627   1.478       .  S
C1623      C1624   1.402       .  A
C1623      H1642   1.085       .  S
C1624      C1625   1.414       .  A
C1624      C1636   1.444       .  S
C1625      C1626   1.406       .  A
C1626      H1641   1.085       .  S
C1627      C1628   1.399       .  A
C1627      C1632   1.411       .  A
C1628      C1629   1.400       .  A
C1628      H1643   1.085       .  S
C1629      C1630   1.416       .  A
C1629      C1633   1.443       .  S
C1630      C1631   1.406       .  A
C1631      C1632   1.397       .  A
C1631      H1644   1.085       .  S
C1632      C1634   1.446       .  S
C1633      N1637   1.157       .  T
C1634      N1638   1.158       .  T
C1635      N1640   1.157       .  T
C1636      N1639   1.157       .  T
C1645      C1646   1.413       .  A
C1645      C1650   1.403       .  A
C1645      C1659   1.444       .  S
C1646      C1647   1.404       .  A
C1646      C1651   1.487       .  S
C1647      C1648   1.396       .  A
C1647      H1666   1.085       .  S
C1648      C1649   1.409       .  A
C1648      C1660   1.444       .  S
C1649      C1650   1.404       .  A
C1650      H1665   1.085       .  S
C1651      C1652   1.404       .  A
C1651      C1656   1.411       .  A
C1652      C1653   1.401       .  A
C1652      H1667   1.085       .  S
C1653      C1654   1.412       .  A
C1653      C1657   1.444       .  S
C1654      C1655   1.404       .  A
C1655      C1656   1.399       .  A
C1655      H1668   1.084       .  S
C1656      C1658   1.444       .  S
C1657      N1661   1.157       .  T
C1658      N1662   1.157       .  T
C1659      N1664   1.157       .  T
C1660      N1663   1.157       .  T
C1669      C1670   1.411       .  A
C1669      C1674   1.408       .  A
C1669      C1683   1.443       .  S
C1670      C1671   1.402       .  A
C1670      C1675   1.495       .  S
C1671      C1672   1.401       .  A
C1671      H1690   1.085       .  S
C1672      C1673   1.421       .  A
C1672      C1684   1.445       .  S
C1673      C1674   1.411       .  A
C1674      H1689   1.084       .  S
C1675      C1676   1.406       .  A
C1675      C1680   1.409       .  A
C1676      C1677   1.411       .  A
C1676      H1691   1.084       .  S
C1677      C1678   1.420       .  A
C1677      C1681   1.443       .  S
C1678      C1679   1.412       .  A
C1679      C1680   1.398       .  A
C1679      H1692   1.084       .  S
C1680      C1682   1.445       .  S
C1681      N1685   1.157       .  T
C1682      N1686   1.157       .  T
C1683      N1688   1.157       .  T
C1684      N1687   1.158       .  T
C1693      C1694   1.412       .  A
C1693      C1698   1.400       .  A
C1693      C1707   1.444       .  S
C1694      C1695   1.399       .  A
C1694      C1699   1.478       .  S
C1695      C1696   1.396       .  A
C1695      H1714   1.085       .  S
C1696      C1697   1.413       .  A
C1696      C1708   1.445       .  S
C1697      C1698   1.402       .  A
C1698      H1713   1.085       .  S
C1699      C1700   1.394       .  A
C1699      C1704   1.409       .  A
C1700      C1701   1.394       .  A
C1700      H1715   1.086       .  S
C1701      C1702   1.424       .  A
C1701      C1705   1.443       .  S
C1702      C1703   1.410       .  A
C1703      C1704   1.403       .  A
C1703      H1716   1.084       .  S
C1704      C1706   1.444       .  S
C1705      N1709   1.157       .  T
C1706      N1710   1.157       .  T
C1707      N1712   1.157       .  T
C1708      N1711   1.157   1_556  T
C1717      C1718   1.410       .  A
C1717      C1722   1.404       .  A
C1717      C1731   1.443       .  S
C1718      C1719   1.406       .  A
C1718      C1723   1.499       .  S
C1719      C1720   1.409       .  A
C1719      H1738   1.085       .  S
C1720      C1721   1.418       .  A
C1720      C1732   1.442       .  S
C1721      C1722   1.408       .  A
C1722      H1737   1.085       .  S
C1723      C1724   1.405       .  A
C1723      C1728   1.409       .  A
C1724      C1725   1.410       .  A
C1724      H1739   1.085       .  S
C1725      C1726   1.421       .  A
C1725      C1729   1.443       .  S
C1726      C1727   1.412       .  A
C1727      C1728   1.404       .  A
C1727      H1740   1.084       .  S
C1728      C1730   1.444       .  S
C1729      N1733   1.157       .  T
C1730      N1734   1.157       .  T
C1731      N1736   1.157       .  T
C1732      N1735   1.157       .  T
C1741      C1742   1.410       .  A
C1741      C1746   1.402       .  A
C1741      C1755   1.443       .  S
C1742      C1743   1.403       .  A
C1742      C1747   1.485       .  S
C1743      C1744   1.399       .  A
C1743      H1762   1.085       .  S
C1744      C1745   1.414       .  A
C1744      C1756   1.444       .  S
C1745      C1746   1.407       .  A
C1746      H1761   1.084       .  S
C1747      C1748   1.399       .  A
C1747      C1752   1.411       .  A
C1748      C1749   1.395       .  A
C1748      H1763   1.085       .  S
C1749      C1750   1.417       .  A
C1749      C1753   1.445       .  S
C1750      C1751   1.408       .  A
C1751      C1752   1.407       .  A
C1751      H1764   1.084       .  S
C1752      C1754   1.443       .  S
C1753      N1757   1.157       .  T
C1754      N1758   1.157       .  T
C1755      N1760   1.157       .  T
C1756      N1759   1.157       .  T
C1765      C1766   1.408       .  A
C1765      C1770   1.401       .  A
C1765      C1779   1.444       .  S
C1766      C1767   1.399       .  A
C1766      C1771   1.478       .  S
C1767      C1768   1.398       .  A
C1767      H1786   1.085       .  S
C1768      C1769   1.416       .  A
C1768      C1780   1.444       .  S
C1769      C1770   1.406       .  A
C1770      H1785   1.085       .  S
C1771      C1772   1.398       .  A
C1771      C1776   1.406       .  A
C1772      C1773   1.399       .  A
C1772      H1787   1.085       .  S
C1773      C1774   1.419       .  A
C1773      C1777   1.443       .  S
C1774      C1775   1.408       .  A
C1775      C1776   1.400       .  A
C1775      H1788   1.084       .  S
C1776      C1778   1.444       .  S
C1777      N1781   1.157       .  T
C1778      N1782   1.157       .  T
C1779      N1784   1.157       .  T
C1780      N1783   1.157       .  T
C1789      C1790   1.410       .  A
C1789      C1794   1.399       .  A
C1789      C1803   1.444       .  S
C1790      C1791   1.404       .  A
C1790      C1795   1.491       .  S
C1791      C1792   1.404       .  A
C1791      H1810   1.085       .  S
C1792      C1793   1.417       .  A
C1792      C1804   1.444       .  S
C1793      C1794   1.408       .  A
C1794      H1809   1.084       .  S
C1795      C1796   1.404       .  A
C1795      C1800   1.412       .  A
C1796      C1797   1.400       .  A
C1796      H1811   1.085       .  S
C1797      C1798   1.414       .  A
C1797      C1801   1.443       .  S
C1798      C1799   1.405       .  A
C1799      C1800   1.402       .  A
C1799      H1812   1.085       .  S
C1800      C1802   1.444       .  S
C1801      N1805   1.157       .  T
C1802      N1806   1.157       .  T
C1803      N1808   1.157       .  T
C1804      N1807   1.157       .  T
C1813      C1814   1.410       .  A
C1813      C1818   1.404       .  A
C1813      C1827   1.442       .  S
C1814      C1815   1.402       .  A
C1814      C1819   1.489       .  S
C1815      C1816   1.403       .  A
C1815      H1834   1.085       .  S
C1816      C1817   1.415       .  A
C1816      C1828   1.444       .  S
C1817      C1818   1.405       .  A
C1818      H1833   1.084       .  S
C1819      C1820   1.402       .  A
C1819      C1824   1.408       .  A
C1820      C1821   1.408       .  A
C1820      H1835   1.085       .  S
C1821      C1822   1.422       .  A
C1821      C1825   1.444       .  S
C1822      C1823   1.410       .  A
C1823      C1824   1.400       .  A
C1823      H1836   1.084       .  S
C1824      C1826   1.444       .  S
C1825      N1829   1.157       .  T
C1826      N1830   1.157       .  T
C1827      N1832   1.157       .  T
C1828      N1831   1.157       .  T
C1837      C1838   1.410       .  A
C1837      C1842   1.399       .  A
C1837      C1851   1.444       .  S
C1838      C1839   1.400       .  A
C1838      C1843   1.482       .  S
C1839      C1840   1.398       .  A
C1839      H1858   1.085       .  S
C1840      C1841   1.418       .  A
C1840      C1852   1.444       .  S
C1841      C1842   1.406       .  A
C1842      H1857   1.084       .  S
C1843      C1844   1.403       .  A
C1843      C1848   1.408       .  A
C1844      C1845   1.404       .  A
C1844      H1859   1.085       .  S
C1845      C1846   1.418       .  A
C1845      C1849   1.443       .  S
C1846      C1847   1.409       .  A
C1847      C1848   1.393       .  A
C1847      H1860   1.084       .  S
C1848      C1850   1.446       .  S
C1849      N1853   1.157       .  T
C1850      N1854   1.157       .  T
C1851      N1856   1.157       .  T
C1852      N1855   1.157       .  T
C1861      C1862   1.408       .  A
C1861      C1866   1.395       .  A
C1861      C1875   1.444       .  S
C1862      C1863   1.404       .  A
C1862      C1867   1.484       .  S
C1863      C1864   1.406       .  A
C1863      H1882   1.085       .  S
C1864      C1865   1.416       .  A
C1864      C1876   1.444       .  S
C1865      C1866   1.404       .  A
C1866      H1881   1.085       .  S
C1867      C1868   1.400       .  A
C1867      C1872   1.408       .  A
C1868      C1869   1.406       .  A
C1868      H1883   1.085       .  S
C1869      C1870   1.422       .  A
C1869      C1873   1.443       .  S
C1870      C1871   1.410       .  A
C1871      C1872   1.397       .  A
C1871      H1884   1.084       .  S
C1872      C1874   1.446       .  S
C1873      N1877   1.157       .  T
C1874      N1878   1.157       .  T
C1875      N1880   1.157       .  T
C1876      N1879   1.158       .  T
C1885      C1886   1.412       .  A
C1885      C1890   1.401       .  A
C1885      C1899   1.444       .  S
C1886      C1887   1.401       .  A
C1886      C1891   1.485       .  S
C1887      C1888   1.399       .  A
C1887      H1906   1.085       .  S
C1888      C1889   1.414       .  A
C1888      C1900   1.444       .  S
C1889      C1890   1.404       .  A
C1890      H1905   1.085       .  S
C1891      C1892   1.399       .  A
C1891      C1896   1.410       .  A
C1892      C1893   1.397       .  A
C1892      H1907   1.085       .  S
C1893      C1894   1.421       .  A
C1893      C1897   1.445       .  S
C1894      C1895   1.408       .  A
C1895      C1896   1.403       .  A
C1895      H1908   1.084       .  S
C1896      C1898   1.444       .  S
C1897      N1901   1.157       .  T
C1898      N1902   1.157       .  T
C1899      N1904   1.157       .  T
C1900      N1903   1.157       .  T
C1909      C1910   1.407       .  A
C1909      C1914   1.394       .  A
C1909      C1923   1.444       .  S
C1910      C1911   1.399       .  A
C1910      C1915   1.467       .  S
C1911      C1912   1.395       .  A
C1911      H1930   1.085       .  S
C1912      C1913   1.412       .  A
C1912      C1924   1.443       .  S
C1913      C1914   1.405       .  A
C1914      H1929   1.085       .  S
C1915      C1916   1.398       .  A
C1915      C1920   1.406       .  A
C1916      C1917   1.398       .  A
C1916      H1931   1.085       .  S
C1917      C1918   1.417       .  A
C1917      C1921   1.444       .  S
C1918      C1919   1.406       .  A
C1919      C1920   1.391       .  A
C1919      H1932   1.085       .  S
C1920      C1922   1.446       .  S
C1921      N1925   1.157       .  T
C1922      N1926   1.157       .  T
C1923      N1928   1.157       .  T
C1924      N1927   1.157       .  T
C1933      C1934   1.406       .  A
C1933      C1938   1.394       .  A
C1933      C1947   1.445       .  S
C1934      C1935   1.401       .  A
C1934      C1939   1.480       .  S
C1935      C1936   1.403       .  A
C1935      H1954   1.085       .  S
C1936      C1937   1.420       .  A
C1936      C1948   1.443       .  S
C1937      C1938   1.411       .  A
C1938      H1953   1.084       .  S
C1939      C1940   1.403       .  A
C1939      C1944   1.409       .  A
C1940      C1941   1.402       .  A
C1940      H1955   1.085       .  S
C1941      C1942   1.414       .  A
C1941      C1945   1.444       .  S
C1942      C1943   1.403       .  A
C1943      C1944   1.396       .  A
C1943      H1956   1.082       .  S
C1944      C1946   1.445       .  S
C1945      N1949   1.157       .  T
C1946      N1950   1.157       .  T
C1947      N1952   1.157       .  T
C1948      N1951   1.157       .  T
C1957      C1958   1.408       .  A
C1957      C1962   1.403       .  A
C1957      C1971   1.444       .  S
C1958      C1959   1.402       .  A
C1958      C1963   1.486       .  S
C1959      C1960   1.401       .  A
C1959      H1978   1.085       .  S
C1960      C1961   1.416       .  A
C1960      C1972   1.443       .  S
C1961      C1962   1.409       .  A
C1962      H1977   1.085       .  S
C1963      C1964   1.405       .  A
C1963      C1968   1.408       .  A
C1964      C1965   1.406       .  A
C1964      H1979   1.084       .  S
C1965      C1966   1.414       .  A
C1965      C1969   1.444       .  S
C1966      C1967   1.406       .  A
C1967      C1968   1.396       .  A
C1967      H1980   1.085       .  S
C1968      C1970   1.444       .  S
C1969      N1973   1.158       .  T
C1970      N1974   1.157       .  T
C1971      N1976   1.157       .  T
C1972      N1975   1.157       .  T
C1981      C1982   1.408       .  A
C1981      C1986   1.399       .  A
C1981      C1995   1.444       .  S
C1982      C1983   1.398       .  A
C1982      C1987   1.479       .  S
C1983      C1984   1.395       .  A
C1983      H2002   1.085       .  S
C1984      C1985   1.423       .  A
C1984      C1996   1.446       .  S
C1985      C1986   1.409       .  A
C1986      H2001   1.084       .  S
C1987      C1988   1.402       .  A
C1987      C1992   1.409       .  A
C1988      C1989   1.395       .  A
C1988      H2003   1.085       .  S
C1989      C1990   1.412       .  A
C1989      C1993   1.444       .  S
C1990      C1991   1.407       .  A
C1991      C1992   1.398       .  A
C1991      H2004   1.085       .  S
C1992      C1994   1.445       .  S
C1993      N1997   1.157       .  T
C1994      N1998   1.157       .  T
C1995      N2000   1.157       .  T
C1996      N1999   1.158       .  T
C2005      C2006   1.405       .  A
C2005      C2010   1.395       .  A
C2005      C2019   1.445       .  S
C2006      C2007   1.400       .  A
C2006      C2011   1.478       .  S
C2007      C2008   1.403       .  A
C2007      H2026   1.085       .  S
C2008      C2009   1.420       .  A
C2008      C2020   1.443       .  S
C2009      C2010   1.411       .  A
C2010      H2025   1.084       .  S
C2011      C2012   1.399       .  A
C2011      C2016   1.406       .  A
C2012      C2013   1.398       .  A
C2012      H2027   1.085       .  S
C2013      C2014   1.418       .  A
C2013      C2017   1.445       .  S
C2014      C2015   1.409       .  A
C2015      C2016   1.402       .  A
C2015      H2028   1.084       .  S
C2016      C2018   1.443       .  S
C2017      N2021   1.157       .  T
C2018      N2022   1.157       .  T
C2019      N2024   1.157       .  T
C2020      N2023   1.157       .  T
