geometry optimzed in LAMMPS
_audit_creation_date              2020-11-30 
_audit_creation_method            'lammps2cif' 
_symmetry_space_group_name_H-M    'P1' 
_symmetry_Int_Tables_number       1 
_symmetry_cell_setting            triclinic 
loop_ 
_symmetry_equiv_pos_as_xyz 
  x,y,z 
_cell_length_a                    38.22302226 
_cell_length_b                    37.85977757720524 
_cell_length_c                    38.1204080308281 
_cell_angle_alpha                 90.53587123868643 
_cell_angle_beta                  89.85188072297593 
_cell_angle_gamma                 90.95667395118716 
loop_ 
_atom_site_label 
_atom_site_type_symbol 
_atom_site_fract_x 
_atom_site_fract_y 
_atom_site_fract_z 
_atom_site_charge 
N1          N  0.51550046  0.99663663  0.43573776    -0.35000
N2          N  0.51483815  0.94523347  0.49277353    -0.55600
N3          N  0.50557155  0.00031199  0.54478973    -0.35000
N4          N  0.50369416  0.05200059  0.48807260    -0.55600
C5          C  0.51142035  0.96607544  0.41714277     0.28600
C6          C  0.50736910  0.02364579  0.41429519     0.28600
C7          C  0.49746364  0.97109204  0.56377116     0.28600
C8          C  0.49166301  0.02855420  0.56153484     0.28600
C9          C  0.52544663  0.92500768  0.46541940     0.37200
C10         C  0.52185270  0.92708042  0.52232323     0.37200
C11         C  0.50842772  0.07241284  0.45928247     0.37200
C12         C  0.50512268  0.07398693  0.51639697     0.37200
C13         C  0.50157799  0.97377304  0.38319174    -0.20300
C14         C  0.50007460  0.00995705  0.38107425    -0.20300
C15         C  0.47792102  0.98093210  0.59284704    -0.20300
C16         C  0.47444796  0.01718561  0.59154846    -0.20300
C17         C  0.53963921  0.89402167  0.47760040    -0.21300
C18         C  0.53792795  0.89557327  0.51360306    -0.21300
C19         C  0.51224811  0.10750274  0.46957857    -0.21300
C20         C  0.51155603  0.10829844  0.50547301    -0.21300
C21         C  0.51753336  0.93158167  0.42978370    -0.16700
C22         C  0.50666165  0.06021509  0.42382133    -0.16700
C23         C  0.49616743  0.06443107  0.55140927    -0.16700
C24         C  0.50919649  0.93630323  0.55627187    -0.16700
H25         H  0.49650892  0.95535776  0.36186472     0.16200
H26         H  0.49389021  0.02423609  0.35753257     0.16200
H27         H  0.46768943  0.96384484  0.61317208     0.16200
H28         H  0.46101227  0.03338992  0.61066310     0.16200
H29         H  0.54927071  0.87215543  0.46205042     0.14500
H30         H  0.54605213  0.87503834  0.53122715     0.14500
H31         H  0.51472245  0.13059617  0.45329491     0.14500
H32         H  0.51382239  0.13194407  0.52150581     0.14500
H33         H  0.52549490  0.99910405  0.46096241     0.27800
H34         H  0.52299194  0.00153968  0.52378330     0.27800
N35         N  0.95585725  0.50470191  0.47959064    -0.35000
N36         N  0.00421308  0.44595018  0.47801731    -0.55600
N37         N  0.06036417  0.49908779  0.48045214    -0.35000
N38         N  0.01211253  0.55756368  0.47955825    -0.55600
C39         C  0.93454645  0.47660727  0.47212299     0.28600
C40         C  0.93798270  0.53447279  0.47231572     0.28600
C41         C  0.07807616  0.46953805  0.47161965     0.28600
C42         C  0.08194537  0.52720502  0.47451942     0.28600
C43         C  0.97462032  0.42831380  0.48774697     0.37200
C44         C  0.03160575  0.42512462  0.48572598     0.37200
C45         C  0.98482295  0.57874550  0.48683071     0.37200
C46         C  0.04144715  0.57536369  0.48979803     0.37200
C47         C  0.90324126  0.48872227  0.45885423    -0.20300
C48         C  0.90506946  0.52499458  0.45977389    -0.20300
C49         C  0.11098803  0.47915419  0.45911143    -0.20300
C50         C  0.11344053  0.51545850  0.46102603    -0.20300
C51         C  0.98329774  0.39588384  0.50158336    -0.21300
C52         C  0.01937689  0.39371593  0.49995024    -0.21300
C53         C  0.99706969  0.61071992  0.50051413    -0.21300
C54         C  0.03284222  0.60827865  0.50305008    -0.21300
C55         C  0.94016306  0.44107565  0.48263641    -0.16700
C56         C  0.94908637  0.56953833  0.48106942    -0.16700
C57         C  0.07581598  0.56242796  0.48590030    -0.16700
C58         C  0.06728957  0.43430643  0.47940889    -0.16700
H59         H  0.88047277  0.47305321  0.45136886     0.16200
H60         H  0.88376210  0.54206428  0.45320196     0.16200
H61         H  0.13170252  0.46171436  0.45095725     0.16200
H62         H  0.13633729  0.53136095  0.45464426     0.16200
H63         H  0.96553301  0.37583800  0.51163352     0.14500
H64         H  0.03484617  0.37177779  0.50861951     0.14500
H65         H  0.98187440  0.63330641  0.50842711     0.14500
H66         H  0.05042929  0.62853662  0.51327216     0.14500
H67         H  0.97871061  0.50373098  0.49423822     0.27800
H68         H  0.03740073  0.49975282  0.49509805     0.27800
N69         N  0.49679909  0.50320381  0.94412640    -0.35000
N70         N  0.55284577  0.50949919  0.99608053    -0.55600
N71         N  0.50000748  0.50329161  0.04983291    -0.35000
N72         N  0.44443016  0.49544505  0.99845137    -0.55600
C73         C  0.52593447  0.49676778  0.92490283     0.28600
C74         C  0.46888467  0.49011100  0.92588782     0.28600
C75         C  0.52993808  0.49808325  0.06790503     0.28600
C76         C  0.47325136  0.48931086  0.06886670     0.28600
C77         C  0.57046532  0.51961311  0.96698749     0.37200
C78         C  0.57189201  0.52081707  0.02399902     0.37200
C79         C  0.42391397  0.50264475  0.97058742     0.37200
C80         C  0.42561246  0.50258528  0.02774982     0.37200
C81         C  0.51646893  0.47887387  0.89434595    -0.20300
C82         C  0.48056680  0.47447359  0.89508164    -0.20300
C83         C  0.52229484  0.47984009  0.09841452    -0.20300
C84         C  0.48659808  0.47380139  0.09876364    -0.20300
C85         C  0.60101939  0.53751639  0.97642108    -0.21300
C86         C  0.60188781  0.53833025  0.01265943    -0.21300
C87         C  0.39186224  0.51480336  0.98223975    -0.21300
C88         C  0.39300165  0.51493418  0.01845605    -0.21300
C89         C  0.56012827  0.51027893  0.93239800    -0.16700
C90         C  0.43316043  0.49502732  0.93517678    -0.16700
C91         C  0.43718048  0.49530300  0.06232547    -0.16700
C92         C  0.56315986  0.51290304  0.05920519    -0.16700
H93         H  0.53360849  0.47060605  0.87327483     0.16200
H94         H  0.46477741  0.46211015  0.87473559     0.16200
H95         H  0.54044716  0.47249666  0.11873637     0.16200
H96         H  0.47191274  0.46117633  0.11962161     0.16200
H97         H  0.62080074  0.54835503  0.95904128     0.14500
H98         H  0.62245635  0.54985506  0.02876057     0.14500
H99         H  0.36981866  0.52226065  0.96632995     0.14500
H100        H  0.37201516  0.52260669  0.03588668     0.14500
H101        H  0.49565349  0.51971204  0.96610244     0.27800
H102        H  0.49743415  0.52017566  0.02859668     0.27800
N103        N  0.00784635  0.56326082  0.00870380    -0.35000
N104        N  0.00368338  0.51577380  0.94789367    -0.55600
N105        N  0.00199959  0.45591219  0.99538012    -0.35000
N106        N  0.00888883  0.50299875  0.05622425    -0.55600
C107        C  0.01353595  0.58650202  0.98228591     0.28600
C108        C  0.01431226  0.58045421  0.03949680     0.28600
C109        C  0.00677732  0.43891123  0.96427386     0.28600
C110        C  0.00879550  0.43261935  0.02124979     0.28600
C111        C  0.99835580  0.54679506  0.93150669     0.37200
C112        C  0.99723718  0.48976950  0.92402605     0.37200
C113        C  0.00593310  0.52930035  0.08038075     0.37200
C114        C  0.00141548  0.47229374  0.07301243     0.37200
C115        C  0.02446875  0.61863901  0.99656859    -0.20300
C116        C  0.02365926  0.61523578  0.03238705    -0.20300
C117        C  0.01602732  0.40420137  0.97089072    -0.20300
C118        C  0.01821484  0.40062226  0.00650453    -0.20300
C119        C  0.98805049  0.54035767  0.89716340    -0.21300
C120        C  0.98856578  0.50447496  0.89210171    -0.21300
C121        C  0.99819360  0.51480641  0.11290510    -0.21300
C122        C  0.99415771  0.47910941  0.10797662    -0.21300
C123        C  0.00572300  0.58081338  0.94602822    -0.16700
C124        C  0.00935338  0.56628901  0.07372257    -0.16700
C125        C  0.00302554  0.43800133  0.05771680    -0.16700
C126        C  0.00117613  0.45312563  0.93017892    -0.16700
H127        H  0.03076033  0.64277779  0.98277304     0.16200
H128        H  0.02864849  0.63660451  0.05072699     0.16200
H129        H  0.02011541  0.38287584  0.95243167     0.16200
H130        H  0.02457772  0.37656185  0.02003068     0.16200
H131        H  0.98204654  0.55952480  0.87727964     0.14500
H132        H  0.98341556  0.49104055  0.86746540     0.14500
H133        H  0.99508803  0.52837868  0.13776904     0.14500
H134        H  0.98718773  0.46034688  0.12815343     0.14500
H135        H  0.99585270  0.53863885  0.00621104     0.27800
H136        H  0.99041034  0.48029105  0.99880229     0.27800
N137        N  0.54812091  0.00587469  0.00938650    -0.35000
N138        N  0.49840652  0.94658411  0.01587539    -0.55600
N139        N  0.44062107  0.99654576  0.00787726    -0.35000
N140        N  0.49052065  0.05517168  0.99845160    -0.55600
C141        C  0.57043785  0.97820205  0.00865918     0.28600
C142        C  0.56684220  0.03557331  0.00135221     0.28600
C143        C  0.42330954  0.96493445  0.00554944     0.28600
C144        C  0.41856057  0.02185823  0.99661748     0.28600
C145        C  0.52812465  0.92998069  0.02526272     0.37200
C146        C  0.47107290  0.92566399  0.02585803     0.37200
C147        C  0.51753152  0.07856884  0.99499605     0.37200
C148        C  0.46069520  0.07344363  0.99374371     0.37200
C149        C  0.60360464  0.99066979  0.99995447    -0.20300
C150        C  0.60169999  0.02654228  0.99704499    -0.20300
C151        C  0.39011018  0.97030176  0.99234851    -0.20300
C152        C  0.38660152  0.00591619  0.98825413    -0.20300
C153        C  0.51961937  0.89833959  0.04137545    -0.21300
C154        C  0.48359763  0.89572437  0.04200103    -0.21300
C155        C  0.50468393  0.11161803  0.98716030    -0.21300
C156        C  0.46891425  0.10841467  0.98649932    -0.21300
C157        C  0.56280876  0.94246371  0.01837520    -0.16700
C158        C  0.55374521  0.07052774  0.99681916    -0.16700
C159        C  0.42615565  0.05886510  0.99342577    -0.16700
C160        C  0.43525959  0.93169099  0.01765484    -0.16700
H161        H  0.62733023  0.97579137  0.99684574     0.16200
H162        H  0.62400701  0.04359655  0.99191503     0.16200
H163        H  0.36978353  0.95074448  0.98713980     0.16200
H164        H  0.36276688  0.01807706  0.97980696     0.16200
H165        H  0.53751403  0.87912974  0.05157583     0.14500
H166        H  0.46836506  0.87389979  0.05251398     0.14500
H167        H  0.51947289  0.13553953  0.98161830     0.14500
H168        H  0.45109067  0.12936016  0.98032517     0.14500
H169        H  0.52233042  0.00508475  0.01761117     0.27800
H170        H  0.46461585  0.00094985  0.01988505     0.27800
O171        O  0.81044375  0.73149291  0.81983521    -0.76900
C172        C  0.72671812  0.80855569  0.84410891     0.84200
O173        O  0.71193861  0.69477592  0.74923427    -0.78000
O174        O  0.69431541  0.81770799  0.73286948    -0.79500
O175        O  0.82068149  0.82603469  0.73009823    -0.79300
O176        O  0.84459948  0.75397703  0.77778213    -0.77900
Zn177      Zn  0.76066844  0.74500684  0.80552766     1.55700
O178        O  0.77280297  0.85390361  0.74669579    -0.79300
Cd179      Cd  0.80917290  0.77385677  0.74246526     1.59700
Cd180      Cd  0.73414522  0.73807067  0.72314612     1.59600
O181        O  0.81673911  0.74677835  0.69667352    -0.79300
O182        O  0.76017297  0.76743973  0.75942937    -1.89800
Cd183      Cd  0.73830845  0.81510126  0.76428826     1.59900
O184        O  0.76677511  0.72139565  0.68107337    -0.79300
O185        O  0.72297902  0.82631757  0.81609535    -0.77900
C186        C  0.71176714  0.68457265  0.78118042     0.84600
C187        C  0.84066454  0.73740418  0.80650552     0.84300
O188        O  0.74139523  0.77848848  0.84286978    -0.76900
C189        C  0.80331360  0.85434170  0.73300975     0.85100
O190        O  0.72912919  0.70115694  0.80489316    -0.77000
C191        C  0.79919195  0.72800459  0.67507778     0.85200
C192        C  0.67998378  0.79715352  0.71022226     0.85500
O193        O  0.69260445  0.76695014  0.70259999    -0.79400
O194        O  0.18115928  0.73314983  0.77046543    -0.76900
C195        C  0.22127315  0.82508757  0.72572703     0.84200
O196        O  0.27005481  0.69225314  0.68931889    -0.78000
O197        O  0.32893707  0.79982530  0.72996794    -0.79500
O198        O  0.28237931  0.75647478  0.84198197    -0.79300
O199        O  0.20562135  0.71610834  0.81978526    -0.77900
Zn200      Zn  0.21942896  0.74590173  0.73650559     1.55700
O201        O  0.30140479  0.80519733  0.81458474    -0.79300
Cd202      Cd  0.25810402  0.72369996  0.80627975     1.59700
Cd203      Cd  0.29673189  0.71488720  0.73158813     1.59600
O204        O  0.28242029  0.67526663  0.80977026    -0.79300
O205        O  0.26457390  0.74519387  0.75901158    -1.89800
Cd206      Cd  0.28528813  0.79449747  0.76253914     1.59900
O207        O  0.31499720  0.67362975  0.76166683    -0.79300
O208        O  0.24914859  0.83039843  0.74360597    -0.77900
C209        C  0.23826942  0.69365096  0.67928914     0.84600
C210        C  0.17834462  0.72152124  0.80158489     0.84300
O211        O  0.20902977  0.79423752  0.71947940    -0.76900
C212        C  0.29865378  0.78615806  0.84207300     0.85100
O213        O  0.21608063  0.71245171  0.69549679    -0.77000
C214        C  0.30514636  0.66004496  0.79063294     0.85200
C215        C  0.34673463  0.77745329  0.71255857     0.85500
O216        O  0.33827838  0.74468226  0.71219150    -0.79400
O217        O  0.75703335  0.18108587  0.72408155    -0.76900
C218        C  0.71150568  0.22130480  0.82055567     0.84200
O219        O  0.66630764  0.26336245  0.69017317    -0.78000
O220        O  0.71709383  0.33383554  0.78938775    -0.79500
O221        O  0.82581285  0.28287920  0.75312799    -0.79300
O222        O  0.80345872  0.21342266  0.70783030    -0.77900
Zn223      Zn  0.72123255  0.21663972  0.74085576     1.55700
O224        O  0.79690441  0.29871107  0.80082347    -0.79300
Cd225      Cd  0.78857492  0.26394230  0.71819649     1.59700
Cd226      Cd  0.70908697  0.29369793  0.70864302     1.59600
O227        O  0.79223382  0.29148901  0.67194158    -0.79300
O228        O  0.74034108  0.26484863  0.73873436    -1.89800
Cd229      Cd  0.74466773  0.28720676  0.78673802     1.59900
O230        O  0.73804484  0.31179144  0.66570645    -0.79300
O231        O  0.72348841  0.25285333  0.82332012    -0.77900
C232        C  0.65741282  0.23101529  0.69471853     0.84600
C233        C  0.78833352  0.18375045  0.71259639     0.84300
O234        O  0.70965326  0.20500867  0.79118844    -0.76900
C235        C  0.82578998  0.29518804  0.78432032     0.85100
O236        O  0.67619125  0.21046591  0.71282207    -0.77000
C237        C  0.76965754  0.30885016  0.65508704     0.85200
C238        C  0.69712460  0.34961572  0.76809482     0.85500
O239        O  0.69070249  0.33746782  0.73729002    -0.79400
O240        O  0.22164246  0.25210052  0.64929915    -0.76900
C241        C  0.31612569  0.20583281  0.69146710     0.84200
O242        O  0.18134857  0.16605817  0.73560596    -0.78000
O243        O  0.28250346  0.20803180  0.79962872    -0.79500
O244        O  0.24568252  0.32004025  0.76030539    -0.79300
O245        O  0.21326850  0.30234834  0.67897957    -0.77900
Zn246      Zn  0.23627655  0.21626473  0.68617058     1.55700
O247        O  0.29340822  0.29025016  0.77461487    -0.79300
Cd248      Cd  0.21481849  0.28611971  0.73038588     1.59700
Cd249      Cd  0.20033553  0.20968337  0.76351955     1.59600
O250        O  0.16421046  0.28987431  0.74968941    -0.79300
O251        O  0.23325402  0.23724813  0.73320859    -1.89800
Cd252      Cd  0.28081841  0.23942799  0.75592759     1.59900
O253        O  0.15742082  0.23961588  0.77870796    -0.79300
O254        O  0.31831950  0.21988295  0.72193270    -0.77900
C255        C  0.18669856  0.15477235  0.70444799     0.84600
C256        C  0.21496998  0.28508346  0.65018885     0.84300
O257        O  0.28692742  0.20243072  0.67540135    -0.76900
C258        C  0.27516484  0.31817855  0.77576876     0.85100
O259        O  0.20610254  0.17153444  0.68273728    -0.77000
C260        C  0.14606259  0.26966115  0.76939068     0.85200
C261        C  0.25895292  0.19165649  0.81693425     0.85500
O262        O  0.22691946  0.19095498  0.80724491    -0.79400
O263        O  0.74805346  0.78076371  0.17898290    -0.76900
C264        C  0.83988790  0.72919325  0.22316146     0.84200
O265        O  0.71702564  0.68805510  0.26566813    -0.78000
O266        O  0.81493347  0.75197717  0.32832656    -0.79500
O267        O  0.76251798  0.84952279  0.28507239    -0.79300
O268        O  0.72420975  0.82455440  0.21001960    -0.77900
Zn269      Zn  0.76205298  0.74471362  0.21547474     1.55700
O270        O  0.81668529  0.82972166  0.28654416    -0.79300
Cd271      Cd  0.73317722  0.80952274  0.26153186     1.59700
Cd272      Cd  0.73533644  0.73108403  0.29497842     1.59600
O273        O  0.68522552  0.80383591  0.28666309    -0.79300
O274        O  0.75940689  0.76479123  0.26252656    -1.89800
Cd275      Cd  0.80757814  0.77550459  0.28018861     1.59900
O276        O  0.68990197  0.75320350  0.31578693    -0.79300
O277        O  0.84398613  0.75104473  0.24850799    -0.77900
C278        C  0.71399372  0.68287555  0.23261818     0.84600
C279        C  0.73228035  0.81022750  0.18075138     0.84300
O280        O  0.81051463  0.72444228  0.20783695    -0.76900
C281        C  0.79510190  0.85487280  0.29045282     0.85100
O282        O  0.72837184  0.70347700  0.21044196    -0.77000
C283        C  0.67286953  0.78064641  0.30757723     0.85200
C284        C  0.79834569  0.72849990  0.34578670     0.85500
O285        O  0.76855409  0.71623403  0.33583154    -0.79400
O286        O  0.28175948  0.79548505  0.21051793    -0.76900
C287        C  0.20563639  0.82013374  0.29186633     0.84200
O288        O  0.32365348  0.73328948  0.30536266    -0.78000
O289        O  0.21110415  0.71539102  0.33922577    -0.79500
O290        O  0.18406684  0.69976386  0.21254964    -0.79300
O291        O  0.25075325  0.75602504  0.17871098    -0.77900
Zn292      Zn  0.26986273  0.78425763  0.26093332     1.55700
O293        O  0.16452612  0.71330299  0.26621807    -0.79300
Cd294      Cd  0.23704469  0.71723946  0.21510613     1.59700
Cd295      Cd  0.28056218  0.70552634  0.28676556     1.59600
O296        O  0.26886301  0.67400790  0.20307206    -0.79300
O297        O  0.24813925  0.73736379  0.26291589    -1.89800
Cd298      Cd  0.20470526  0.73960993  0.29152303     1.59900
O299        O  0.29690168  0.66670173  0.25332735    -0.79300
O300        O  0.18967874  0.79131305  0.29910241    -0.77900
C301        C  0.33234653  0.76593769  0.30598996     0.84600
C302        C  0.27091010  0.78331716  0.18111474     0.84300
O303        O  0.23601166  0.82088484  0.27805640    -0.76900
C304        C  0.15979845  0.69983484  0.23582398     0.85100
O305        O  0.31391416  0.78881480  0.29058421    -0.77000
C306        C  0.29101105  0.65762991  0.22163522     0.85200
C307        C  0.23228179  0.69172940  0.34877792     0.85500
O308        O  0.25800419  0.68222597  0.32991359    -0.79400
O309        O  0.70841007  0.20694002  0.18251057    -0.76900
C310        C  0.78744971  0.19081053  0.26794480     0.84200
O311        O  0.66148628  0.25930379  0.28629282    -0.78000
O312        O  0.78332300  0.30237275  0.30838717    -0.79500
O313        O  0.78862459  0.30365653  0.17992831    -0.79300
O314        O  0.71769021  0.25759547  0.15547656    -0.77900
Zn315      Zn  0.72110962  0.21907757  0.23361051     1.55700
O316        O  0.81944801  0.29220876  0.22796721    -0.79300
Cd317      Cd  0.73760953  0.29125219  0.19371225     1.59700
Cd318      Cd  0.70158715  0.29431744  0.27138127     1.59600
O319        O  0.70922845  0.33706636  0.19316763    -0.79300
O320        O  0.73555804  0.26850589  0.24062328    -1.89800
Cd321      Cd  0.78312979  0.27171353  0.26280274     1.59900
O322        O  0.68100578  0.33754103  0.24457667    -0.79300
O323        O  0.80031433  0.22137183  0.27493657    -0.77900
C324        C  0.65583605  0.22661330  0.27925972     0.84600
C325        C  0.70730058  0.22544456  0.15474062     0.84300
O326        O  0.75836203  0.18656859  0.25196019    -0.76900
C327        C  0.81763481  0.30222192  0.19620903     0.85100
O328        O  0.67706111  0.20917792  0.26037412    -0.77000
C329        C  0.68812977  0.35125780  0.21480780     0.85200
C330        C  0.75871721  0.31581900  0.32646802     0.85500
O331        O  0.72677672  0.31413404  0.31655274    -0.79400
N332        N  0.00086850  0.00379754  0.55011742    -0.35000
N333        N  0.05226558  0.99505297  0.49379776    -0.55600
N334        N  0.99551509  0.00466894  0.44220370    -0.35000
N335        N  0.94489711  0.01644163  0.49875694    -0.55600
C336        C  0.03051959  0.00059125  0.56937986     0.28600
C337        C  0.97434560  0.01162741  0.57249521     0.28600
C338        C  0.02363193  0.00308231  0.42039727     0.28600
C339        C  0.96718074  0.01304188  0.42264596     0.28600
C340        C  0.07250746  0.98528564  0.52104377     0.37200
C341        C  0.06982003  0.98664186  0.46410190     0.37200
C342        C  0.92613988  0.02172160  0.52852116     0.37200
C343        C  0.92328286  0.02228057  0.47131833     0.37200
C344        C  0.02261717  0.00652002  0.60441602    -0.20300
C345        C  0.98742522  0.01235508  0.60650678    -0.20300
C346        C  0.01285881  0.01027386  0.38653142    -0.20300
C347        C  0.97746423  0.01515638  0.38772113    -0.20300
C348        C  0.10317428  0.97070375  0.50856873    -0.21300
C349        C  0.10152178  0.97163158  0.47257687    -0.21300
C350        C  0.89253774  0.03173693  0.51985716    -0.21300
C351        C  0.89075313  0.03213431  0.48384242    -0.21300
C352        C  0.06407142  0.98986374  0.55705954    -0.16700
C353        C  0.93869720  0.01831726  0.56352295    -0.16700
C354        C  0.93250119  0.01992275  0.43509345    -0.16700
C355        C  0.05839831  0.99325214  0.42937331    -0.16700
H356        H  0.04011877  0.00570654  0.62661894     0.16200
H357        H  0.97345052  0.01652018  0.63081508     0.16200
H358        H  0.02857720  0.01123133  0.36291764     0.16200
H359        H  0.96152636  0.02008875  0.36498436     0.16200
H360        H  0.12449564  0.96037862  0.52379552     0.14500
H361        H  0.12135929  0.96214821  0.45467502     0.14500
H362        H  0.87150223  0.03847081  0.53762608     0.14500
H363        H  0.86810181  0.03929013  0.46867308     0.14500
H364        H  0.99827103  0.99822200  0.52404816     0.27800
H365        H  0.99533014  0.99814251  0.46808684     0.27800
N366        N  0.14821816  0.98911058  0.30589695    -0.01900
C367        C  0.15263354  0.01762771  0.28446646     0.00700
C368        C  0.16249762  0.00738290  0.25112814    -0.22200
C369        C  0.16545188  0.97176096  0.25151349    -0.22400
C370        C  0.15632625  0.96086088  0.28483493     0.00600
H371        H  0.17027305  0.02452275  0.22980007     0.14400
H372        H  0.17504222  0.95554913  0.23013587     0.14400
O373        O  0.24746052  0.22837787  0.14684168    -0.76900
C374        C  0.15305529  0.27212299  0.19582157     0.84200
O375        O  0.29067928  0.31127776  0.23303654    -0.78000
O376        O  0.19509393  0.26914091  0.30270219    -0.79500
O377        O  0.22180804  0.15701714  0.24788800    -0.79300
O378        O  0.26412242  0.18016946  0.17383549    -0.77900
Zn379      Zn  0.23210536  0.26229902  0.18578039     1.55700
O380        O  0.17975801  0.18807056  0.27350765    -0.79300
Cd381      Cd  0.25582072  0.19259759  0.22583237     1.59700
Cd382      Cd  0.27478715  0.26744008  0.26095081     1.59600
O383        O  0.30310301  0.18559660  0.24984321    -0.79300
O384        O  0.23881606  0.24123074  0.23196337    -1.89800
Cd385      Cd  0.19291777  0.23891808  0.25746323     1.59900
O386        O  0.31996821  0.23775281  0.27118772    -0.79300
O387        O  0.15360583  0.25772022  0.22593345    -0.77900
C388        C  0.28266778  0.32317064  0.20297571     0.84600
C389        C  0.25984075  0.19724264  0.14565891     0.84300
O390        O  0.18108858  0.27574535  0.17784635    -0.76900
C391        C  0.19455819  0.15882930  0.26705110     0.85100
O392        O  0.26113095  0.30720093  0.18257896    -0.77000
C393        C  0.32608689  0.20526291  0.26461187     0.85200
C394        C  0.22011878  0.28452428  0.31906229     0.85500
O395        O  0.25151244  0.28530111  0.30737909    -0.79400
N396        N  0.98651844  0.30899819  0.14010829    -0.01900
C397        C  0.01235276  0.28504162  0.14550587     0.00700
C398        C  0.99828203  0.25199846  0.15229384    -0.22200
C399        C  0.96287709  0.25519437  0.15223090    -0.22400
C400        C  0.95602596  0.29003040  0.14483463     0.00600
H401        H  0.01243033  0.22885377  0.16017517     0.14400
H402        H  0.94406642  0.23480494  0.15940008     0.14400
N403        N  0.29370406  0.13005237  0.98085076    -0.01900
C404        C  0.27043812  0.13014309  0.95343005     0.00700
C405        C  0.23649246  0.12638837  0.96554717    -0.22200
C406        C  0.23807141  0.12406985  0.00097348    -0.22400
C407        C  0.27277541  0.12813869  0.01013740     0.00600
H408        H  0.21266939  0.12857788  0.95049902     0.14400
H409        H  0.21578685  0.12538062  0.01851690     0.14400
N410        N  0.49382443  0.15103208  0.30253134    -0.01900
C411        C  0.52447340  0.15360037  0.28367128     0.00700
C412        C  0.51816804  0.15474736  0.24821416    -0.22200
C413        C  0.48309508  0.15617929  0.24434315    -0.22400
C414        C  0.46816976  0.15386102  0.27740676     0.00600
H415        H  0.53720153  0.16013741  0.22776968     0.14400
H416        H  0.46999438  0.16164898  0.21989907     0.14400
N417        N  0.84999362  0.02809514  0.30959759    -0.01900
C418        C  0.85132463  0.99655185  0.29156723     0.00700
C419        C  0.85132907  0.00203634  0.25586969    -0.22200
C420        C  0.84725811  0.03717307  0.25104654    -0.22400
C421        C  0.84676082  0.05307484  0.28384332     0.00600
H422        H  0.84870909  0.98195443  0.23558054     0.14400
H423        H  0.84223734  0.04943906  0.22607130     0.14400
N424        N  0.67434080  0.16478186  0.98602531    -0.01900
C425        C  0.69814578  0.16969795  0.95928704     0.00700
C426        C  0.73089755  0.17826876  0.97235843    -0.22200
C427        C  0.72823535  0.17877013  0.00773530    -0.22400
C428        C  0.69374339  0.17142118  0.01578494     0.00600
H429        H  0.75393248  0.18595093  0.95751058     0.14400
H430        H  0.74854394  0.18738839  0.02579204     0.14400
N431        N  0.64095981  0.52208779  0.18907467    -0.01900
C432        C  0.63788323  0.49242134  0.20926551     0.00700
C433        C  0.63969330  0.50088982  0.24446570    -0.22200
C434        C  0.64574051  0.53623103  0.24675088    -0.22400
C435        C  0.64599816  0.54914039  0.21294348     0.00600
H436        H  0.64144227  0.48254928  0.26599710     0.16000
H437        H  0.65162729  0.55075859  0.27066583     0.14400
N438        N  0.80221801  0.37372147  0.49153268    -0.01900
C439        C  0.77964601  0.37859206  0.46417069     0.00700
C440        C  0.74632619  0.38509308  0.47663438    -0.22200
C441        C  0.74722289  0.38153208  0.51212676    -0.22400
C442        C  0.78131818  0.37420090  0.52081353     0.00600
H443        H  0.72271432  0.38643412  0.46110392     0.14400
H444        H  0.72474383  0.38109591  0.52945507     0.14400
N445        N  0.34438401  0.49127177  0.18457424    -0.01900
C446        C  0.33769489  0.46192875  0.20407372     0.00700
C447        C  0.33006234  0.47088426  0.23841031    -0.22200
C448        C  0.33097493  0.50677910  0.24047349    -0.22400
C449        C  0.33976373  0.51881873  0.20748844     0.00600
H450        H  0.32091137  0.45321801  0.25876602     0.14400
H451        H  0.32358480  0.52257934  0.26303090     0.14400
N452        N  0.99334276  0.64226968  0.20554103    -0.01900
C453        C  0.96430560  0.64662019  0.22627433     0.00700
C454        C  0.97273555  0.64200036  0.26116738    -0.22200
C455        C  0.00756419  0.63525628  0.26255947    -0.22400
C456        C  0.02026458  0.63748716  0.22869780     0.00600
H457        H  0.95623168  0.64700497  0.28372467     0.14400
H458        H  0.02302938  0.63539606  0.28632539     0.14400
N459        N  0.32810706  0.81907336  0.01514692    -0.01900
C460        C  0.30735572  0.80503613  0.04121990     0.00700
C461        C  0.28725692  0.77706259  0.02863662    -0.22200
C462        C  0.29417833  0.77391314  0.99393760    -0.22400
C463        C  0.31908585  0.79939671  0.98597557     0.00600
H464        H  0.26846354  0.76125863  0.04321563     0.14400
H465        H  0.28167540  0.75539030  0.97593717     0.14400
N466        N  0.50128305  0.79618568  0.35809865    -0.01900
C467        C  0.47278759  0.77358507  0.35591354     0.00700
C468        C  0.48347838  0.73899410  0.35265515    -0.22200
C469        C  0.51902403  0.73952810  0.35279904    -0.22400
C470        C  0.52954984  0.77445221  0.35527891     0.00600
H471        H  0.46705629  0.71581695  0.34824150     0.14400
H472        H  0.53557527  0.71708914  0.34781868     0.14400
N473        N  0.20922519  0.63261243  0.51358398    -0.01900
C474        C  0.22967016  0.63173511  0.54306277     0.00700
C475        C  0.26462164  0.62937707  0.53400225    -0.22200
C476        C  0.26631683  0.62904029  0.49833568    -0.22400
C477        C  0.23246329  0.63171278  0.48644786     0.00600
H478        H  0.28684639  0.63094579  0.55151870     0.14400
H479        H  0.28997495  0.63105055  0.48275776     0.14400
N480        N  0.69444705  0.86567105  0.01471235    -0.01900
C481        C  0.71389861  0.86277783  0.98435838     0.00700
C482        C  0.74901511  0.85992805  0.99187168    -0.22200
C483        C  0.75206542  0.85938323  0.02727441    -0.22400
C484        C  0.71886625  0.86294953  0.04105636     0.00600
H485        H  0.76981487  0.85450819  0.97334116     0.14400
H486        H  0.77586918  0.85422920  0.04153354     0.14400
N487        N  0.19353298  0.35004116  0.48453366    -0.01900
C488        C  0.21458088  0.34897513  0.45526432     0.00700
C489        C  0.24930010  0.34637132  0.46443009    -0.22200
C490        C  0.25034229  0.34312751  0.49975794    -0.22400
C491        C  0.21637500  0.34551385  0.51194180     0.00600
H492        H  0.27101383  0.34154357  0.44680878     0.14400
H493        H  0.27333055  0.33653265  0.51469846     0.14400
N494        N  0.99217647  0.33121760  0.83949223    -0.01900
C495        C  0.96280428  0.31404521  0.85171122     0.00700
C496        C  0.97149317  0.28363895  0.86900643    -0.22200
C497        C  0.00612749  0.27869775  0.86266558    -0.22400
C498        C  0.01685189  0.30541355  0.84023832     0.00600
H499        H  0.95356731  0.26383948  0.87928448     0.14400
H500        H  0.02009978  0.25489002  0.86868908     0.14400
N501        N  0.14397289  0.98079552  0.68392488    -0.01900
C502        C  0.13906911  0.01096085  0.70337913     0.00700
C503        C  0.13873696  0.00371705  0.73875951    -0.22200
C504        C  0.14605659  0.96896009  0.74197039    -0.22400
C505        C  0.14894233  0.95503719  0.70845330     0.00600
H506        H  0.13892223  0.02286426  0.76004497     0.14400
H507        H  0.15155679  0.95583774  0.76640181     0.14400
N508        N  0.48773094  0.18901291  0.64305988    -0.01900
C509        C  0.51554929  0.21165114  0.65006390     0.00700
C510        C  0.50404257  0.24419155  0.66126283    -0.22200
C511        C  0.46863828  0.24223056  0.66256822    -0.22400
C512        C  0.45881940  0.20886329  0.65102414     0.00600
H513        H  0.52009330  0.26617460  0.67053792     0.14400
H514        H  0.45163760  0.26278968  0.67215377     0.14400
N515        N  0.31999020  0.48425749  0.83113979    -0.01900
C516        C  0.29731756  0.45708147  0.82187624     0.00700
C517        C  0.27046836  0.46924202  0.80121512    -0.22200
C518        C  0.27582424  0.50437396  0.79712434    -0.22400
C519        C  0.30607634  0.51310530  0.81493403     0.00600
H520        H  0.24978047  0.45362969  0.78899676     0.14400
H521        H  0.25989940  0.52180937  0.78174542     0.14400
N522        N  0.86066232  0.02171967  0.69423633    -0.01900
C523        C  0.86341117  0.99279632  0.71534315     0.00700
C524        C  0.86267315  0.00269166  0.75026420    -0.22200
C525        C  0.85616271  0.03779621  0.75135815    -0.22400
C526        C  0.85518480  0.04926242  0.71706927     0.00600
H527        H  0.86064325  0.98515916  0.77249709     0.14400
H528        H  0.84977296  0.05269168  0.77480757     0.14400
N529        N  0.00777037  0.70752025  0.85954284    -0.01900
C530        C  0.98078157  0.73047398  0.85472958     0.00700
C531        C  0.99357513  0.76381393  0.84686592    -0.22200
C532        C  0.02910711  0.76204130  0.84675860    -0.22400
C533        C  0.03739212  0.72754123  0.85393155     0.00600
H534        H  0.97851657  0.78657849  0.83965176     0.14400
H535        H  0.04705340  0.78285871  0.83866592     0.14400
N536        N  0.51165827  0.81706152  0.65263539    -0.01900
C537        C  0.48484562  0.79328594  0.65881092     0.00700
C538        C  0.49774907  0.76086543  0.66816478    -0.22200
C539        C  0.53320182  0.76390137  0.66766416    -0.22400
C540        C  0.54132931  0.79827892  0.65864781     0.00600
H541        H  0.48278408  0.73793959  0.67661344     0.14400
H542        H  0.55126571  0.74411959  0.67643195     0.14400
N543        N  0.64428105  0.51808428  0.80512219    -0.01900
C544        C  0.64511973  0.48996395  0.78229365     0.00700
C545        C  0.64872932  0.50136901  0.74817821    -0.22200
C546        C  0.65153235  0.53722472  0.74943611    -0.22400
C547        C  0.64875726  0.54720662  0.78425087     0.00600
H548        H  0.65328195  0.48501257  0.72522024     0.14400
H549        H  0.65753574  0.55416348  0.72743256     0.14400
N550        N  0.86062635  0.68845833  0.50871774    -0.01900
C551        C  0.86358511  0.71166303  0.48105080     0.00700
C552        C  0.87018875  0.74569755  0.49242635    -0.22200
C553        C  0.86878711  0.74514300  0.52784404    -0.22400
C554        C  0.86223424  0.71058429  0.53760744     0.00600
H555        H  0.87048861  0.76927249  0.47654647     0.14400
H556        H  0.86865604  0.76830119  0.54473270     0.14400
C557        C  0.21253959  0.30128680  0.35342050    -0.03700
C558        C  0.20826197  0.28006766  0.38332883    -0.00900
C559        C  0.20566600  0.29592163  0.41680277     0.04100
C560        C  0.20544510  0.33327883  0.42051268    -0.03700
C561        C  0.20762948  0.35435045  0.39021019    -0.00800
C562        C  0.21110825  0.33838036  0.35673280     0.04100
C563        C  0.20841320  0.24183135  0.37983645     0.38800
C564        C  0.20910507  0.39248047  0.39379870     0.38800
C565        C  0.21409570  0.36002815  0.32565807     0.37200
C566        C  0.20587791  0.27368962  0.44765194     0.37200
N567        N  0.21643237  0.37706839  0.30068837    -0.37600
N568        N  0.20648283  0.25570929  0.47201821    -0.37600
N569        N  0.21058092  0.42292076  0.39668527    -0.37100
N570        N  0.20844199  0.21135922  0.37706446    -0.37100
C571        C  0.29748975  0.35786478  0.19273144    -0.03700
C572        C  0.33411142  0.36376085  0.19245942    -0.00900
C573        C  0.34789328  0.39846804  0.19012309     0.04100
C574        C  0.32513436  0.42726227  0.19064630    -0.03700
C575        C  0.28853769  0.42119308  0.18860402    -0.00800
C576        C  0.27483872  0.38650434  0.18831031     0.04100
C577        C  0.35746644  0.33431267  0.19658646     0.38800
C578        C  0.26476644  0.45073911  0.19010702     0.38800
C579        C  0.23720677  0.38064672  0.18698164     0.37200
C580        C  0.38537425  0.40483628  0.18933916     0.37200
N581        N  0.20720567  0.37612115  0.18582944    -0.37600
N582        N  0.41527332  0.41005816  0.18828173    -0.37600
N583        N  0.24573496  0.47415181  0.19179937    -0.37100
N584        N  0.37597383  0.31076502  0.20030806    -0.37100
C585        C  0.36127550  0.18949695  0.27193735    -0.03700
C586        C  0.38251766  0.20060568  0.30063068    -0.00900
C587        C  0.41673655  0.18695723  0.30497031     0.04100
C588        C  0.42964106  0.16115677  0.28136522    -0.03700
C589        C  0.40668101  0.14732680  0.25524948    -0.00800
C590        C  0.37399211  0.16260154  0.24930924     0.04100
C591        C  0.36938260  0.22620294  0.32568313     0.38800
C592        C  0.41689807  0.11729708  0.23358179     0.38800
C593        C  0.35514113  0.15218849  0.21770023     0.37200
C594        C  0.43871988  0.20029801  0.33315544     0.37200
N595        N  0.34065308  0.14396835  0.19221922    -0.37600
N596        N  0.45591696  0.21102774  0.35594750    -0.37600
N597        N  0.42483454  0.09331812  0.21644808    -0.37100
N598        N  0.35887187  0.24657285  0.34575797    -0.37100
C599        C  0.26908874  0.18022575  0.11081702    -0.03700
C600        C  0.27673757  0.14342495  0.10807300    -0.00900
C601        C  0.28294829  0.12743806  0.07497079     0.04100
C602        C  0.27909752  0.14686094  0.04408276    -0.03700
C603        C  0.27235663  0.18342738  0.04649980    -0.00800
C604        C  0.26947990  0.20034819  0.07947866     0.04100
C605        C  0.27640998  0.12085235  0.13862093     0.38800
C606        C  0.26650257  0.20355636  0.01484749     0.38800
C607        C  0.26690714  0.23857750  0.08041020     0.37200
C608        C  0.29193938  0.09041049  0.07240903     0.37200
N609        N  0.26513625  0.26907431  0.08081584    -0.37600
N610        N  0.29945268  0.06097900  0.07033252    -0.37600
N611        N  0.26112409  0.21977330  0.98991005    -0.37100
N612        N  0.27586865  0.10248832  0.16273464    -0.37100
C613        C  0.04896541  0.29257984  0.15668923    -0.03700
C614        C  0.05620921  0.29427551  0.19301141    -0.00900
C615        C  0.09078874  0.29179668  0.20526493     0.04100
C616        C  0.11844168  0.28395490  0.18165577    -0.03700
C617        C  0.11141545  0.28457407  0.14500559    -0.00800
C618        C  0.07677595  0.28895108  0.13273608     0.04100
C619        C  0.02764406  0.29667930  0.21815483     0.38800
C620        C  0.13914332  0.27897213  0.11964945     0.38800
C621        C  0.06916397  0.28691872  0.09551623     0.37200
C622        C  0.09752817  0.29734362  0.24242210     0.37200
N623        N  0.06285124  0.28513632  0.06587234    -0.37600
N624        N  0.10279703  0.30190822  0.27202251    -0.37600
N625        N  0.16119422  0.27465017  0.09926645    -0.37100
N626        N  0.00500362  0.29836273  0.23828548    -0.37100
C627        C  0.18117060  0.12537568  0.28259780    -0.03700
C628        C  0.20573735  0.10053877  0.29410360    -0.00900
C629        C  0.19555680  0.06510099  0.29841756     0.04100
C630        C  0.16000783  0.05471231  0.29482922    -0.03700
C631        C  0.13467097  0.08051212  0.28844259    -0.00800
C632        C  0.14520003  0.11588584  0.28200772     0.04100
C633        C  0.24208695  0.11102798  0.29974527     0.38800
C634        C  0.09831478  0.06968612  0.28454234     0.38800
C635        C  0.11937056  0.14147258  0.27195115     0.37200
C636        C  0.22241121  0.03869820  0.30260214     0.37200
N637        N  0.09866542  0.16183280  0.26394600    -0.37600
N638        N  0.24398055  0.01789589  0.30583608    -0.37600
N639        N  0.06938480  0.06080153  0.28124586    -0.37100
N640        N  0.27100019  0.11950101  0.30410205    -0.37100
C641        C  0.86361835  0.03306514  0.34541491    -0.03700
C642        C  0.89145260  0.05752440  0.35296860    -0.00900
C643        C  0.90882549  0.05700017  0.38571024     0.04100
C644        C  0.90486746  0.02754422  0.40779446    -0.03700
C645        C  0.87639855  0.00410396  0.40151586    -0.00800
C646        C  0.85382162  0.00943187  0.37266037     0.04100
C647        C  0.90605530  0.08073249  0.32669793     0.38800
C648        C  0.87098615  0.97365433  0.42377079     0.38800
C649        C  0.81985591  0.99203040  0.37265348     0.37200
C650        C  0.93359860  0.08499474  0.39515513     0.37200
N651        N  0.79257055  0.97838203  0.37411526    -0.37600
N652        N  0.95333526  0.10727697  0.40271230    -0.37600
N653        N  0.86675940  0.94915401  0.44130565    -0.37100
N654        N  0.91994978  0.09963266  0.30728277    -0.37100
C655        C  0.12824285  0.98814279  0.33874237    -0.03700
C656        C  0.13669209  0.01031590  0.36798952    -0.00900
C657        C  0.11334216  0.01300836  0.39680865     0.04100
C658        C  0.08450629  0.98945366  0.39985100    -0.03700
C659        C  0.07887152  0.96404878  0.37317546    -0.00800
C660        C  0.09784551  0.96621572  0.34147344     0.04100
C661        C  0.16964534  0.02938497  0.37038184     0.38800
C662        C  0.05188475  0.93697659  0.37749489     0.38800
C663        C  0.08229298  0.94985363  0.31076686     0.37200
C664        C  0.11847572  0.04078228  0.42291085     0.37200
N665        N  0.06749531  0.93747948  0.28714069    -0.37600
N666        N  0.12232938  0.06310296  0.44356316    -0.37600
N667        N  0.03043457  0.91537355  0.38109901    -0.37100
N668        N  0.19560468  0.04481412  0.37522113    -0.37100
C669        C  0.87568232  0.02431323  0.65879019    -0.03700
C670        C  0.86654110  0.99974495  0.63167637    -0.00900
C671        C  0.88692300  0.99755736  0.60060873     0.04100
C672        C  0.91320188  0.02316165  0.59354974    -0.03700
C673        C  0.91764314  0.05155962  0.61730586    -0.00800
C674        C  0.90230840  0.04992688  0.65102329     0.04100
C675        C  0.83547904  0.97759753  0.63406502     0.38800
C676        C  0.94063997  0.08099916  0.60809510     0.38800
C677        C  0.91823680  0.07166085  0.67816162     0.37200
C678        C  0.88109021  0.96854806  0.57605984     0.37200
N679        N  0.93305185  0.08897993  0.69858663    -0.37600
N680        N  0.87640700  0.94545522  0.55643472    -0.37600
N681        N  0.95892425  0.10444361  0.60067158    -0.37100
N682        N  0.81047206  0.95992753  0.63392034    -0.37100
C683        C  0.13076452  0.97624103  0.64798379    -0.03700
C684        C  0.10251024  0.95235203  0.64037944    -0.00900
C685        C  0.08467080  0.95358153  0.60795871     0.04100
C686        C  0.09113151  0.98149268  0.58456494    -0.03700
C687        C  0.12068452  0.00360010  0.59034786    -0.00800
C688        C  0.14145636  0.99965494  0.62084345     0.04100
C689        C  0.08833155  0.92858463  0.66635625     0.38800
C690        C  0.12914686  0.03120878  0.56546250     0.38800
C691        C  0.17408311  0.01939469  0.62335932     0.37200
C692        C  0.05738119  0.92764265  0.59969771     0.37200
N693        N  0.20025491  0.03522100  0.62384648    -0.37600
N694        N  0.03562980  0.90704905  0.59304337    -0.37600
N695        N  0.13598827  0.05316094  0.54553983    -0.37100
N696        N  0.07451044  0.90902155  0.68514835    -0.37100
C697        C  0.78179656  0.36039788  0.42923440    -0.03700
C698        C  0.76636702  0.32619121  0.42541083    -0.00900
C699        C  0.75889697  0.31207318  0.39183426     0.04100
C700        C  0.76725207  0.33146096  0.36149593    -0.03700
C701        C  0.78378415  0.36502815  0.36501981    -0.00800
C702        C  0.79074714  0.37956006  0.39881775     0.04100
C703        C  0.75575917  0.30626659  0.45611935     0.38800
C704        C  0.79184225  0.38537085  0.33393494     0.38800
C705        C  0.80554723  0.41488963  0.40247426     0.37200
C706        C  0.74148385  0.27781042  0.38844777     0.37200
N707        N  0.81727705  0.44311516  0.40563922    -0.37600
N708        N  0.72738995  0.25064727  0.38556268    -0.37600
N709        N  0.79809150  0.40170094  0.30911281    -0.37100
N710        N  0.74665334  0.29028312  0.48030798    -0.37100
C711        C  0.67423503  0.38660184  0.20629140    -0.03700
C712        C  0.63790188  0.39284178  0.20485809    -0.00900
C713        C  0.62561101  0.42766691  0.20078788     0.04100
C714        C  0.64954215  0.45645773  0.19940170    -0.03700
C715        C  0.68588214  0.44991127  0.20044043    -0.00800
C716        C  0.69810068  0.41514819  0.20222576     0.04100
C717        C  0.61323137  0.36360966  0.20846841     0.38800
C718        C  0.71082675  0.47920443  0.20344093     0.38800
C719        C  0.73553718  0.40917407  0.20279630     0.37200
C720        C  0.58834897  0.43429826  0.20078132     0.37200
N721        N  0.76538101  0.40451549  0.20314607    -0.37600
N722        N  0.55863047  0.43968930  0.20087074    -0.37600
N723        N  0.73072771  0.50242552  0.20619366    -0.37100
N724        N  0.59348783  0.34031427  0.21144289    -0.37100
C725        C  0.68178861  0.18254251  0.05130848    -0.03700
C726        C  0.68600323  0.15933839  0.07952843    -0.00900
C727        C  0.69288818  0.17269889  0.11378721     0.04100
C728        C  0.69414916  0.20984973  0.12037652    -0.03700
C729        C  0.68453729  0.23260886  0.09259206    -0.00800
C730        C  0.67996195  0.21919383  0.05825970     0.04100
C731        C  0.68619455  0.12164144  0.07237084     0.38800
C732        C  0.68037240  0.27028402  0.09847815     0.38800
C733        C  0.67624293  0.24361537  0.02931276     0.37200
C734        C  0.70098407  0.14787169  0.14118862     0.37200
N735        N  0.67311659  0.26313518  0.00639246    -0.37600
N736        N  0.70756270  0.12772950  0.16275430    -0.37600
N737        N  0.67721803  0.30034473  0.10299137    -0.37100
N738        N  0.68619862  0.09164386  0.06624691    -0.37100
C739        C  0.80711453  0.15890469  0.27774813    -0.03700
C740        C  0.79391751  0.13587831  0.30365256    -0.00900
C741        C  0.80877319  0.10222256  0.30839515     0.04100
C742        C  0.83730095  0.09143825  0.28726839    -0.03700
C743        C  0.85212104  0.11617441  0.26317352    -0.00800
C744        C  0.83720696  0.14965452  0.25870165     0.04100
C745        C  0.76444784  0.14680059  0.32496919     0.38800
C746        C  0.88179447  0.10672775  0.24128014     0.38800
C747        C  0.85158030  0.17376847  0.23274551     0.37200
C748        C  0.79236108  0.07802505  0.33282592     0.37200
N749        N  0.86310189  0.19285928  0.21200076    -0.37600
N750        N  0.77840049  0.05941432  0.35248572    -0.37600
N751        N  0.90527215  0.09910754  0.22369049    -0.37100
N752        N  0.74112278  0.15591045  0.34201499    -0.37100
C753        C  0.55715614  0.17212231  0.29503198    -0.03700
C754        C  0.55854205  0.20944976  0.29393854    -0.00900
C755        C  0.59097825  0.22764861  0.29254162     0.04100
C756        C  0.62256304  0.20855577  0.29079200    -0.03700
C757        C  0.62101557  0.17125426  0.29536575    -0.00800
C758        C  0.58838116  0.15332457  0.29787839     0.04100
C759        C  0.52631196  0.22913949  0.29216607     0.38800
C760        C  0.65271995  0.15073724  0.29592872     0.38800
C761        C  0.58667986  0.11529705  0.30209720     0.37200
C762        C  0.59115241  0.26589014  0.29000714     0.37200
N763        N  0.58516698  0.08501185  0.30585475    -0.37600
N764        N  0.59112970  0.29638135  0.28805826    -0.37600
N765        N  0.67772597  0.13392031  0.29588873    -0.37100
N766        N  0.50077063  0.24502181  0.29058644    -0.37100
C767        C  0.85083360  0.30873481  0.17677807    -0.03700
C768        C  0.85695795  0.28967891  0.14543685    -0.00900
C769        C  0.89140550  0.28566996  0.13299635     0.04100
C770        C  0.91983080  0.30376503  0.14957019    -0.03700
C771        C  0.91264730  0.32706991  0.17784289    -0.00800
C772        C  0.87852404  0.32850196  0.19219405     0.04100
C773        C  0.82837990  0.27074547  0.12803808     0.38800
C774        C  0.94070785  0.34669776  0.19495294     0.38800
C775        C  0.87232836  0.34870859  0.22410279     0.37200
C776        C  0.89752338  0.25929736  0.10588722     0.37200
N777        N  0.86752385  0.36446905  0.24978129    -0.37600
N778        N  0.90154098  0.23749521  0.08483854    -0.37600
N779        N  0.96231989  0.36288173  0.20933570    -0.37100
N780        N  0.80556699  0.25578577  0.11418974    -0.37100
C781        C  0.22655800  0.64718154  0.45161034    -0.03700
C782        C  0.23324080  0.68374378  0.44723959    -0.00900
C783        C  0.23323884  0.69842487  0.41356738     0.04100
C784        C  0.22835473  0.67637485  0.38393787    -0.03700
C785        C  0.22238105  0.63971933  0.38816443    -0.00800
C786        C  0.22049781  0.62530401  0.42212537     0.04100
C787        C  0.24114225  0.70618930  0.47741527     0.38800
C788        C  0.21944992  0.61674591  0.35762795     0.38800
C789        C  0.21342245  0.58790913  0.42682856     0.37200
C790        C  0.24071413  0.73589905  0.40927978     0.37200
N791        N  0.20759251  0.55810993  0.43073067    -0.37600
N792        N  0.24683910  0.76570599  0.40580312    -0.37600
N793        N  0.21761993  0.59836169  0.33325114    -0.37100
N794        N  0.24769368  0.72410352  0.50135157    -0.37100
C795        C  0.43477275  0.78201903  0.35116804    -0.03700
C796        C  0.42381524  0.80418582  0.32370801    -0.00900
C797        C  0.38898124  0.80185891  0.31101053     0.04100
C798        C  0.36515153  0.77661788  0.32496887    -0.03700
C799        C  0.37456238  0.75842426  0.35560601    -0.00800
C800        C  0.40911614  0.76063022  0.36830972     0.04100
C801        C  0.44882092  0.82678821  0.30576527     0.38800
C802        C  0.34872236  0.73676694  0.37391994     0.38800
C803        C  0.41854141  0.73856770  0.39768249     0.37200
C804        C  0.37842843  0.82418658  0.28232208     0.37200
N805        N  0.42565553  0.72077418  0.42105364    -0.37600
N806        N  0.36989791  0.84230085  0.25970904    -0.37600
N807        N  0.32815286  0.71954863  0.38851424    -0.37100
N808        N  0.46798198  0.84507193  0.29060997    -0.37100
C809        C  0.28268057  0.80070096  0.14829639    -0.03700
C810        C  0.25775341  0.81361375  0.12479441    -0.00900
C811        C  0.26761399  0.82158773  0.09012293     0.04100
C812        C  0.30250569  0.81618156  0.07854449    -0.03700
C813        C  0.32836568  0.80890003  0.10364433    -0.00800
C814        C  0.31844133  0.80102512  0.13857028     0.04100
C815        C  0.22163315  0.81727544  0.13592517     0.38800
C816        C  0.36466757  0.80679236  0.09302734     0.38800
C817        C  0.34461455  0.79039973  0.16364883     0.37200
C818        C  0.24097228  0.83190039  0.06527793     0.37200
N819        N  0.36537111  0.78190347  0.18380197    -0.37600
N820        N  0.21972100  0.84000132  0.04547470    -0.37600
N821        N  0.39379943  0.80545856  0.08486177    -0.37100
N822        N  0.19285822  0.82030087  0.14482362    -0.37100
C823        C  0.12433326  0.68447301  0.22825990    -0.03700
C824        C  0.09454784  0.70512057  0.23512807    -0.00900
C825        C  0.06072191  0.68992911  0.23362350     0.04100
C826        C  0.05591926  0.65372856  0.22493921    -0.03700
C827        C  0.08546343  0.63301616  0.21763638    -0.00800
C828        C  0.11959939  0.64831963  0.21921214     0.04100
C829        C  0.09842605  0.74196603  0.24537453     0.38800
C830        C  0.08063641  0.59573306  0.20979864     0.38800
C831        C  0.14984077  0.62619024  0.21445240     0.37200
C832        C  0.03084162  0.71149826  0.24266734     0.37200
N833        N  0.17395672  0.60839285  0.21101603    -0.37600
N834        N  0.00732768  0.72882885  0.25039027    -0.37600
N835        N  0.07655427  0.56597106  0.20359586    -0.37100
N836        N  0.10055909  0.77120593  0.25425755    -0.37100
C837        C  0.31021719  0.62627820  0.20751088    -0.03700
C838        C  0.29491759  0.60255213  0.18273772    -0.00900
C839        C  0.30876614  0.56832769  0.17794610     0.04100
C840        C  0.33668563  0.55703275  0.19915485    -0.03700
C841        C  0.35420625  0.58216015  0.22082048    -0.00800
C842        C  0.34232334  0.61704223  0.22318945     0.04100
C843        C  0.26335344  0.61185350  0.16417368     0.38800
C844        C  0.38156376  0.57148016  0.24463515     0.38800
C845        C  0.36235884  0.64279439  0.24374786     0.37200
C846        C  0.29141342  0.54366140  0.15418302     0.37200
N847        N  0.37830657  0.66311982  0.26031515    -0.37600
N848        N  0.27696126  0.52468818  0.13494344    -0.37600
N849        N  0.40261971  0.56385865  0.26484376    -0.37100
N850        N  0.23812088  0.61895936  0.14926857    -0.37100
C851        C  0.16045469  0.92312388  0.29476061    -0.03700
C852        C  0.18509061  0.91379169  0.32062125    -0.00900
C853        C  0.19793237  0.87898165  0.32167954     0.04100
C854        C  0.18717240  0.85382571  0.29625616    -0.03700
C855        C  0.16175905  0.86261464  0.27135153    -0.00800
C856        C  0.14763828  0.89662591  0.27124258     0.04100
C857        C  0.20067706  0.94059517  0.34329883     0.38800
C858        C  0.15371227  0.83830781  0.24266313     0.38800
C859        C  0.12255074  0.90507016  0.24412102     0.37200
C860        C  0.22403219  0.86962267  0.34738793     0.37200
N861        N  0.10283774  0.91143568  0.22215601    -0.37600
N862        N  0.24488889  0.86214553  0.36785811    -0.37600
N863        N  0.14805702  0.81961655  0.21909543    -0.37100
N864        N  0.21397679  0.96146902  0.36141860    -0.37100
C865        C  0.84590519  0.70822126  0.44627426    -0.03700
C866        C  0.80972849  0.71530023  0.44379829    -0.00900
C867        C  0.79359197  0.71845314  0.41074300     0.04100
C868        C  0.81377666  0.71690713  0.37969062    -0.03700
C869        C  0.84983257  0.70901814  0.38204611    -0.00800
C870        C  0.86582123  0.70490122  0.41519363     0.04100
C871        C  0.78972686  0.72331587  0.47519317     0.38800
C872        C  0.87061941  0.70539694  0.35034378     0.38800
C873        C  0.90308497  0.69871059  0.41749613     0.37200
C874        C  0.75653071  0.72591148  0.40897789     0.37200
N875        N  0.93281843  0.69379652  0.41944175    -0.37600
N876        N  0.72693551  0.73165021  0.40755238    -0.37600
N877        N  0.88723058  0.70246377  0.32508149    -0.37100
N878        N  0.77364614  0.73088284  0.49981741    -0.37100
C879        C  0.69241653  0.65220548  0.22001980    -0.03700
C880        C  0.65934650  0.64576698  0.23521472    -0.00900
C881        C  0.64174400  0.61329358  0.22942155     0.04100
C882        C  0.65623666  0.58710232  0.20689144    -0.03700
C883        C  0.68689654  0.59599144  0.18766569    -0.00800
C884        C  0.70520942  0.62819703  0.19463919     0.04100
C885        C  0.64375481  0.67224174  0.25795256     0.38800
C886        C  0.70171980  0.57128584  0.16283193     0.38800
C887        C  0.73865077  0.63525929  0.17772824     0.37200
C888        C  0.61049427  0.60582934  0.24998068     0.37200
N889        N  0.76537348  0.64089167  0.16437444    -0.37600
N890        N  0.58616305  0.60020605  0.26731764    -0.37600
N891        N  0.71482788  0.55287933  0.14249424    -0.37100
N892        N  0.63120454  0.69317821  0.27612054    -0.37100
C893        C  0.72306205  0.82828250  0.14762797    -0.03700
C894        C  0.69836238  0.81287921  0.12440065    -0.00900
C895        C  0.69274359  0.82761435  0.09090531     0.04100
C896        C  0.71318238  0.85689943  0.07960182    -0.03700
C897        C  0.73633945  0.87359761  0.10417647    -0.00800
C898        C  0.74037853  0.85989520  0.13823788     0.04100
C899        C  0.67958389  0.78097011  0.13463835     0.38800
C900        C  0.75872728  0.90304418  0.09372583     0.38800
C901        C  0.76441604  0.87693886  0.16280744     0.37200
C902        C  0.66801367  0.81046981  0.06734568     0.37200
N903        N  0.78350125  0.89057316  0.18240878    -0.37600
N904        N  0.64789553  0.79618753  0.04931811    -0.37600
N905        N  0.77717521  0.92614046  0.08563361    -0.37100
N906        N  0.66484119  0.75540995  0.14288087    -0.37100
C907        C  0.63619883  0.78407879  0.32011111    -0.03700
C908        C  0.62820767  0.78899188  0.35605137    -0.00900
C909        C  0.59290249  0.78940854  0.36749599     0.04100
C910        C  0.56553557  0.78398213  0.34321490    -0.03700
C911        C  0.57367518  0.77940247  0.30718884    -0.00800
C912        C  0.60870121  0.78033265  0.29563683     0.04100
C913        C  0.65627931  0.79321125  0.38125748     0.38800
C914        C  0.54579816  0.77288922  0.28195441     0.38800
C915        C  0.61649001  0.77537676  0.25860813     0.37200
C916        C  0.58463519  0.79393978  0.40436306     0.37200
N917        N  0.62274189  0.77128755  0.22913739    -0.37600
N918        N  0.57784715  0.79763378  0.43375699    -0.37600
N919        N  0.52353645  0.76770702  0.26194236    -0.37100
N920        N  0.67863000  0.79663138  0.40147954    -0.37100
C921        C  0.80807346  0.89183269  0.29958617    -0.03700
C922        C  0.84333596  0.89864336  0.31025019    -0.00900
C923        C  0.85691070  0.93371960  0.31183023     0.04100
C924        C  0.83565264  0.96225131  0.30306902    -0.03700
C925        C  0.79969540  0.95603287  0.29664765    -0.00800
C926        C  0.78579888  0.92135054  0.29543394     0.04100
C927        C  0.86614152  0.86990486  0.31932091     0.38800
C928        C  0.77714908  0.98562158  0.28924703     0.38800
C929        C  0.74863761  0.91693171  0.28835991     0.37200
C930        C  0.89303396  0.94058976  0.32162172     0.37200
N931        N  0.71899680  0.91372938  0.28274207    -0.37600
N932        N  0.92175350  0.94616149  0.32979675    -0.37600
N933        N  0.75916739  0.00905541  0.28311799    -0.37100
N934        N  0.88445590  0.84706019  0.32656697    -0.37100
C935        C  0.86889357  0.70477402  0.21562298    -0.03700
C936        C  0.86852053  0.67188610  0.23261725    -0.00900
C937        C  0.89883496  0.65127187  0.23326861     0.04100
C938        C  0.93016427  0.66314090  0.21651123    -0.03700
C939        C  0.92948984  0.69510068  0.19733124    -0.00800
C940        C  0.89895941  0.71584854  0.19711847     0.04100
C941        C  0.83770920  0.66071845  0.25236015     0.38800
C942        C  0.96090566  0.70897040  0.18084172     0.38800
C943        C  0.89896470  0.74962571  0.17950556     0.37200
C944        C  0.89803026  0.61886459  0.25343045     0.37200
N945        N  0.89890650  0.77662461  0.16552447    -0.37600
N946        N  0.89720720  0.59312092  0.26958439    -0.37600
N947        N  0.98556571  0.72108536  0.16768003    -0.37100
N948        N  0.81330595  0.65207317  0.26836005    -0.37100
C949        C  0.30061691  0.41793493  0.82535954    -0.03700
C950        C  0.26995159  0.39860007  0.83507708    -0.00900
C951        C  0.26321217  0.36466658  0.82096596     0.04100
C952        C  0.28696401  0.34939813  0.79707139    -0.03700
C953        C  0.31987974  0.36606098  0.79171252    -0.00800
C954        C  0.32673141  0.40027321  0.80593644     0.04100
C955        C  0.24285594  0.41532198  0.85589849     0.38800
C956        C  0.34545034  0.34946464  0.76909441     0.38800
C957        C  0.35905983  0.41864367  0.79720666     0.37200
C958        C  0.23065955  0.34622219  0.82953956     0.37200
N959        N  0.38507616  0.43289936  0.79003385    -0.37600
N960        N  0.20468791  0.33156129  0.83615121    -0.37600
N961        N  0.36585867  0.33617519  0.75103839    -0.37100
N962        N  0.22097754  0.42829002  0.87237485    -0.37100
C963        C  0.42071587  0.19836371  0.65151162    -0.03700
C964        C  0.40819418  0.17236494  0.67511238    -0.00900
C965        C  0.37260503  0.17212324  0.68597230     0.04100
C966        C  0.34930915  0.19743885  0.67291235    -0.03700
C967        C  0.36060597  0.22021293  0.64612838    -0.00800
C968        C  0.39615802  0.22161768  0.63633176     0.04100
C969        C  0.43250647  0.14871110  0.69155274     0.38800
C970        C  0.33619871  0.24500032  0.63125307     0.38800
C971        C  0.40780926  0.25027748  0.61387155     0.37200
C972        C  0.36011959  0.14657715  0.71139824     0.37200
N973        N  0.41674995  0.27364768  0.59646530    -0.37600
N974        N  0.35017345  0.12594945  0.73147356    -0.37600
N975        N  0.31655537  0.26463976  0.61962483    -0.37100
N976        N  0.45166517  0.12983885  0.70508409    -0.37100
C977        C  0.15182380  0.04686336  0.69367858    -0.03700
C978        C  0.18745139  0.05561470  0.70000371    -0.00900
C979        C  0.19894926  0.09104120  0.69992976     0.04100
C980        C  0.17477971  0.11833350  0.69557586    -0.03700
C981        C  0.13946910  0.10981444  0.68777891    -0.00800
C982        C  0.12807210  0.07399238  0.68656052     0.04100
C983        C  0.21195558  0.02830877  0.70928178     0.38800
C984        C  0.11482238  0.13775792  0.68180343     0.38800
C985        C  0.09161817  0.06501005  0.68016976     0.37200
C986        C  0.23552760  0.09962940  0.70668436     0.37200
N987        N  0.06253086  0.05767124  0.67518104    -0.37600
N988        N  0.26461336  0.10671399  0.71199359    -0.37600
N989        N  0.09493725  0.15986039  0.67678670    -0.37100
N990        N  0.23144157  0.00675634  0.71726085    -0.37100
C991        C  0.04530959  0.29905566  0.81299927    -0.03700
C992        C  0.06873804  0.32579573  0.80113351    -0.00900
C993        C  0.10209882  0.31665429  0.78773872     0.04100
C994        C  0.11036065  0.28072791  0.78133875    -0.03700
C995        C  0.08336124  0.25505350  0.78498642    -0.00800
C996        C  0.05117142  0.26408895  0.80055193     0.04100
C997        C  0.05801116  0.36220456  0.79929792     0.38800
C998        C  0.08807324  0.21937033  0.77162693     0.38800
C999        C  0.02326025  0.23758406  0.80144119     0.37200
C1000       C  0.12798646  0.34442564  0.78176883     0.37200
N1001       N  0.00114464  0.21634158  0.80215308    -0.37600
N1002       N  0.14853948  0.36672702  0.77722066    -0.37600
N1003       N  0.09177610  0.19100721  0.76081324    -0.37100
N1004       N  0.05002304  0.39139604  0.79640737    -0.37100
C1005       C  0.21042753  0.30440742  0.61670640    -0.03700
C1006       C  0.18640980  0.29221336  0.59105318    -0.00900
C1007       C  0.18479252  0.30873318  0.55791710     0.04100
C1008       C  0.20840684  0.33662997  0.54952796    -0.03700
C1009       C  0.23096695  0.35012205  0.57638190    -0.00800
C1010       C  0.23120780  0.33469744  0.60988429     0.04100
C1011       C  0.16347804  0.26232969  0.59869783     0.38800
C1012       C  0.25592944  0.37856831  0.56925039     0.38800
C1013       C  0.25465820  0.34884753  0.63669466     0.37200
C1014       C  0.16021817  0.29514079  0.53211099     0.37200
N1015       N  0.27318447  0.36028940  0.65808075    -0.37600
N1016       N  0.14005068  0.28364591  0.51232577    -0.37600
N1017       N  0.27618015  0.40091854  0.56371324    -0.37100
N1018       N  0.14524461  0.23844696  0.60479386    -0.37100
C1019       C  0.26892506  0.17262690  0.84937681    -0.03700
C1020       C  0.29088205  0.18863085  0.87507840    -0.00900
C1021       C  0.29534910  0.17242225  0.90810263     0.04100
C1022       C  0.27687203  0.14074791  0.91607188    -0.03700
C1023       C  0.25746313  0.12345566  0.88890124    -0.00800
C1024       C  0.25488995  0.13864021  0.85549693     0.04100
C1025       C  0.30738979  0.22273527  0.86843722     0.38800
C1026       C  0.23804639  0.09087525  0.89551814     0.38800
C1027       C  0.23801622  0.11897617  0.82713653     0.37200
C1028       C  0.31672569  0.19013715  0.93445019     0.37200
N1029       N  0.22503032  0.10311457  0.80441732    -0.37600
N1030       N  0.33403578  0.20487002  0.95490649    -0.37600
N1031       N  0.22232669  0.06503921  0.90068040    -0.37100
N1032       N  0.32065059  0.24988853  0.86316791    -0.37100
C1033       C  0.78043719  0.32719178  0.62241809    -0.03700
C1034       C  0.79505927  0.30856750  0.59378734    -0.00900
C1035       C  0.80032597  0.32559621  0.56118071     0.04100
C1036       C  0.78984790  0.36103593  0.55670790    -0.03700
C1037       C  0.77786235  0.38013102  0.58653754    -0.00800
C1038       C  0.77395377  0.36345860  0.61920886     0.04100
C1039       C  0.80177521  0.27109290  0.59691974     0.38800
C1040       C  0.76634887  0.41624462  0.58362989     0.38800
C1041       C  0.76198044  0.38347184  0.64955210     0.37200
C1042       C  0.81335810  0.30527481  0.53168450     0.37200
N1043       N  0.75243155  0.39923142  0.67380978    -0.37600
N1044       N  0.82377158  0.28814939  0.50876359    -0.37600
N1045       N  0.75605770  0.44479285  0.58288569    -0.37100
N1046       N  0.80684937  0.24115406  0.59931949    -0.37100
C1047       C  0.68313811  0.38463629  0.77871820    -0.03700
C1048       C  0.70669413  0.41333053  0.78380582    -0.00900
C1049       C  0.69401579  0.44780814  0.78842727     0.04100
C1050       C  0.65757454  0.45382666  0.79010150    -0.03700
C1051       C  0.63410808  0.42470623  0.78848584    -0.00800
C1052       C  0.64679142  0.39021202  0.78228250     0.04100
C1053       C  0.74415351  0.40774476  0.78209684     0.38800
C1054       C  0.59686923  0.43065270  0.79162867     0.38800
C1055       C  0.62250071  0.36055963  0.77921622     0.37200
C1056       C  0.71854309  0.47753790  0.78873185     0.37200
N1057       N  0.60307064  0.33688916  0.77684295    -0.37600
N1058       N  0.73811175  0.50119061  0.78865325    -0.37600
N1059       N  0.56718431  0.43558822  0.79438206    -0.37100
N1060       N  0.77400814  0.40323920  0.78089833    -0.37100
C1061       C  0.80925391  0.15158463  0.70812234    -0.03700
C1062       C  0.83860965  0.14710850  0.72977715    -0.00900
C1063       C  0.85572127  0.11456214  0.73021542     0.04100
C1064       C  0.84370810  0.08590776  0.70872895    -0.03700
C1065       C  0.81619179  0.09180577  0.68466565    -0.00800
C1066       C  0.79920883  0.12468419  0.68434125     0.04100
C1067       C  0.85004924  0.17543249  0.75335310     0.38800
C1068       C  0.80298760  0.06379479  0.66200952     0.38800
C1069       C  0.77134210  0.13097738  0.65951071     0.37200
C1070       C  0.88463683  0.11046458  0.75446825     0.37200
N1071       N  0.74937454  0.13608818  0.63944115    -0.37600
N1072       N  0.90742029  0.10740364  0.77410069    -0.37600
N1073       N  0.79128165  0.04238280  0.64343105    -0.37100
N1074       N  0.85919012  0.19797949  0.77207256    -0.37100
C1075       C  0.62304329  0.21764595  0.68057334    -0.03700
C1076       C  0.59763859  0.20366969  0.70384698    -0.00900
C1077       C  0.56268980  0.19839729  0.69272968     0.04100
C1078       C  0.55303747  0.20372299  0.65725745    -0.03700
C1079       C  0.57913813  0.21537954  0.63340465    -0.00800
C1080       C  0.61389565  0.22231883  0.64499183     0.04100
C1081       C  0.60659662  0.19759030  0.74026022     0.38800
C1082       C  0.56923428  0.22439989  0.59794536     0.38800
C1083       C  0.64014570  0.23511372  0.62046663     0.37200
C1084       C  0.53568770  0.19196036  0.71896187     0.37200
N1085       N  0.66123168  0.24524056  0.60099060    -0.37600
N1086       N  0.51408185  0.18698778  0.73974479    -0.37600
N1087       N  0.56126928  0.23216039  0.56981519    -0.37100
N1088       N  0.61372946  0.19257625  0.76925948    -0.37100
C1089       C  0.69192535  0.17377305  0.92080824    -0.03700
C1090       C  0.66952955  0.20039632  0.90878764    -0.00900
C1091       C  0.67530507  0.21570690  0.87551641     0.04100
C1092       C  0.70133848  0.20234455  0.85291399    -0.03700
C1093       C  0.72018515  0.17241387  0.86279409    -0.00800
C1094       C  0.71653756  0.15902623  0.89693974     0.04100
C1095       C  0.64218725  0.21393553  0.93129241     0.38800
C1096       C  0.74575491  0.15731898  0.83892982     0.38800
C1097       C  0.74054491  0.13205286  0.90829461     0.37200
C1098       C  0.65554384  0.24624018  0.86508182     0.37200
N1099       N  0.75978088  0.11063493  0.91721373    -0.37600
N1100       N  0.64012087  0.27083818  0.85679236    -0.37600
N1101       N  0.76603865  0.14523799  0.81988676    -0.37100
N1102       N  0.61980853  0.22481344  0.94856493    -0.37100
C1103       C  0.92768389  0.31484922  0.83414682    -0.03700
C1104       C  0.89678768  0.31477355  0.85450904    -0.00900
C1105       C  0.86360630  0.30906505  0.83865871     0.04100
C1106       C  0.86056681  0.30455703  0.80160319    -0.03700
C1107       C  0.89178911  0.30739198  0.78111641    -0.00800
C1108       C  0.92489419  0.31149568  0.79729557     0.04100
C1109       C  0.89930759  0.32046971  0.89214472     0.38800
C1110       C  0.89060566  0.30617737  0.74303396     0.38800
C1111       C  0.95618485  0.31170074  0.77558776     0.37200
C1112       C  0.83308585  0.30652317  0.86124077     0.37200
N1113       N  0.98085449  0.31196801  0.75791714    -0.37600
N1114       N  0.80895150  0.30439936  0.87955359    -0.37600
N1115       N  0.88996069  0.30513493  0.71268280    -0.37100
N1116       N  0.90145892  0.32516557  0.92211153    -0.37100
C1117       C  0.22731363  0.67364411  0.64718515    -0.03700
C1118       C  0.20745480  0.69002334  0.62084650    -0.00900
C1119       C  0.20379182  0.67396218  0.58736069     0.04100
C1120       C  0.21972226  0.64119875  0.57997754    -0.03700
C1121       C  0.23564741  0.62296611  0.60801849    -0.00800
C1122       C  0.23929583  0.63908181  0.64133574     0.04100
C1123       C  0.19328618  0.72491780  0.62700478     0.38800
C1124       C  0.25136550  0.58878115  0.60222023     0.38800
C1125       C  0.25635790  0.62031968  0.66944382     0.37200
C1126       C  0.18696124  0.69362583  0.55997030     0.37200
N1127       N  0.26994397  0.60532787  0.69180290    -0.37600
N1128       N  0.17338409  0.71094315  0.53941230    -0.37600
N1129       N  0.26472052  0.56177989  0.59854787    -0.37100
N1130       N  0.18197025  0.75271439  0.63185296    -0.37100
C1131       C  0.37859393  0.78919113  0.69231275    -0.03700
C1132       C  0.40077573  0.81709838  0.70448785    -0.00900
C1133       C  0.43430276  0.82266745  0.68925432     0.04100
C1134       C  0.44643418  0.79985323  0.66243424    -0.03700
C1135       C  0.42251243  0.77481370  0.64765527    -0.00800
C1136       C  0.38866043  0.77023724  0.66185443     0.04100
C1137       C  0.39067421  0.83837649  0.73459621     0.38800
C1138       C  0.43362649  0.75050697  0.62031011     0.38800
C1139       C  0.36476113  0.74463451  0.64570956     0.37200
C1140       C  0.45737876  0.84954228  0.70411007     0.37200
N1141       N  0.34587892  0.72406065  0.63295295    -0.37600
N1142       N  0.47479333  0.87136553  0.71685024    -0.37600
N1143       N  0.44158411  0.73003781  0.59913382    -0.37100
N1144       N  0.38280727  0.85536862  0.75866132    -0.37100
C1145       C  0.14225148  0.71502392  0.81646097    -0.03700
C1146       C  0.11335815  0.71005621  0.79341304    -0.00900
C1147       C  0.07885364  0.71136903  0.80631841     0.04100
C1148       C  0.07233513  0.71491732  0.84265273    -0.03700
C1149       C  0.10073033  0.71602311  0.86609556    -0.00800
C1150       C  0.13557943  0.71623777  0.85322905     0.04100
C1151       C  0.11860044  0.70399787  0.75607803     0.38800
C1152       C  0.09391051  0.71933487  0.90340819     0.38800
C1153       C  0.16412522  0.71967581  0.87807629     0.37200
C1154       C  0.04974824  0.71064790  0.78179939     0.37200
N1155       N  0.18681937  0.72237843  0.89802178    -0.37600
N1156       N  0.02664938  0.70990183  0.76222771    -0.37600
N1157       N  0.08835937  0.72201007  0.93316342    -0.37100
N1158       N  0.12264177  0.69927648  0.72630527    -0.37100
C1159       C  0.31783555  0.62403496  0.80072916    -0.03700
C1160       C  0.33051845  0.60059566  0.77455835    -0.00900
C1161       C  0.32883872  0.56388384  0.77996551     0.04100
C1162       C  0.31950609  0.55015834  0.81319465    -0.03700
C1163       C  0.31327068  0.57371511  0.84119272    -0.00800
C1164       C  0.31217167  0.61053678  0.83505860     0.04100
C1165       C  0.34414663  0.61354881  0.74140014     0.38800
C1166       C  0.30419058  0.55973423  0.87537548     0.38800
C1167       C  0.30465012  0.63417121  0.86415903     0.37200
C1168       C  0.33355488  0.54018154  0.75013722     0.37200
N1169       N  0.29869965  0.65281885  0.88757827    -0.37600
N1170       N  0.33715466  0.52151854  0.72622423    -0.37600
N1171       N  0.29679864  0.54833642  0.90251609    -0.37100
N1172       N  0.35546650  0.62378905  0.71512390    -0.37100
C1173       C  0.31593631  0.79664528  0.87566416    -0.03700
C1174       C  0.30848314  0.82873520  0.89311407    -0.00900
C1175       C  0.31592732  0.83274212  0.92942251     0.04100
C1176       C  0.32936123  0.80410451  0.94848262    -0.03700
C1177       C  0.34055649  0.77373668  0.92976196    -0.00800
C1178       C  0.33507725  0.77074486  0.89341728     0.04100
C1179       C  0.29001435  0.85605675  0.87475679     0.38800
C1180       C  0.35299797  0.74310041  0.94842929     0.38800
C1181       C  0.34654643  0.73930648  0.87472854     0.37200
C1182       C  0.30576811  0.86460643  0.94785017     0.37200
N1183       N  0.35549223  0.71424844  0.85981893    -0.37600
N1184       N  0.29764944  0.89019486  0.96233758    -0.37600
N1185       N  0.36244789  0.71838331  0.96307815    -0.37100
N1186       N  0.27512029  0.87780990  0.86012638    -0.37100
C1187       C  0.16241701  0.91832783  0.70341625    -0.03700
C1188       C  0.19428646  0.91232801  0.68530288    -0.00900
C1189       C  0.21346252  0.88129899  0.69165980     0.04100
C1190       C  0.20016598  0.85549013  0.71477546    -0.03700
C1191       C  0.16657011  0.85931219  0.72932662    -0.00800
C1192       C  0.14843722  0.89092888  0.72491658     0.04100
C1193       C  0.20916664  0.93885912  0.66234718     0.38800
C1194       C  0.15154213  0.83154837  0.75108947     0.38800
C1195       C  0.11686042  0.89609700  0.74550856     0.37200
C1196       C  0.24708819  0.87599964  0.67481348     0.37200
N1197       N  0.09202954  0.90008492  0.76243573    -0.37600
N1198       N  0.27389387  0.87166480  0.66138847    -0.37600
N1199       N  0.13953339  0.80934422  0.76822014    -0.37100
N1200       N  0.22211999  0.95916534  0.64368908    -0.37100
C1201       C  0.81741843  0.71568896  0.64169714    -0.03700
C1202       C  0.79941000  0.69630041  0.61482767    -0.00900
C1203       C  0.81501260  0.69119021  0.58125836     0.04100
C1204       C  0.84887733  0.70482970  0.57421250    -0.03700
C1205       C  0.86858180  0.71950093  0.60218629    -0.00800
C1206       C  0.85326041  0.72519045  0.63536840     0.04100
C1207       C  0.76468699  0.68170365  0.62113226     0.38800
C1208       C  0.90540360  0.72830222  0.59666230     0.38800
C1209       C  0.87509598  0.74191526  0.66214163     0.37200
C1210       C  0.79594207  0.67238399  0.55390692     0.37200
N1211       N  0.89275362  0.75554890  0.68304706    -0.37600
N1212       N  0.78064883  0.65702142  0.53231636    -0.37600
N1213       N  0.93471779  0.73501084  0.59218599    -0.37100
N1214       N  0.73703544  0.66981871  0.62608516    -0.37100
C1215       C  0.69062204  0.65228846  0.79053802    -0.03700
C1216       C  0.65759356  0.64638242  0.77491067    -0.00900
C1217       C  0.64148686  0.61260178  0.77589795     0.04100
C1218       C  0.65679784  0.58476544  0.79500587    -0.03700
C1219       C  0.68655026  0.59280852  0.81583746    -0.00800
C1220       C  0.70392704  0.62608060  0.81291302     0.04100
C1221       C  0.64022259  0.67508018  0.75730457     0.38800
C1222       C  0.70141006  0.56623634  0.83811489     0.38800
C1223       C  0.73689647  0.63213828  0.83094545     0.37200
C1224       C  0.61089351  0.60609865  0.75419269     0.37200
N1225       N  0.76324590  0.63685259  0.84527604    -0.37600
N1226       N  0.58706268  0.60173874  0.73589502    -0.37600
N1227       N  0.71414890  0.54604918  0.85651597    -0.37100
N1228       N  0.62619760  0.69800600  0.74358069    -0.37100
C1229       C  0.64584170  0.80743753  0.69460930    -0.03700
C1230       C  0.63925047  0.80386696  0.65819096    -0.00900
C1231       C  0.60480915  0.80729902  0.64508096     0.04100
C1232       C  0.57657781  0.81224187  0.66840441    -0.03700
C1233       C  0.58359389  0.81787682  0.70448852    -0.00800
C1234       C  0.61817285  0.81739950  0.71714177     0.04100
C1235       C  0.66768323  0.79593885  0.63431524     0.38800
C1236       C  0.55486233  0.81997487  0.72943523     0.38800
C1237       C  0.62461093  0.82431426  0.75412498     0.37200
C1238       C  0.59781207  0.80310440  0.60790098     0.37200
N1239       N  0.62980259  0.83018878  0.78352235    -0.37600
N1240       N  0.59198682  0.79998667  0.57824464    -0.37600
N1241       N  0.53212875  0.82133853  0.74948175    -0.37100
N1242       N  0.69031393  0.78955991  0.61517093    -0.37100
C1243       C  0.71431946  0.82287535  0.87926770    -0.03700
C1244       C  0.71027377  0.85974716  0.88574077    -0.00900
C1245       C  0.70391194  0.87269329  0.92027614     0.04100
C1246       C  0.70275256  0.84951052  0.94897483    -0.03700
C1247       C  0.70437799  0.81272305  0.94226668    -0.00800
C1248       C  0.70829195  0.79950528  0.90771463     0.04100
C1249       C  0.71467254  0.88497103  0.85763332     0.38800
C1250       C  0.70502475  0.78830092  0.97144965     0.38800
C1251       C  0.70645116  0.76154241  0.90195576     0.37200
C1252       C  0.70128989  0.91033150  0.92694689     0.37200
N1253       N  0.70485331  0.73128420  0.89740976    -0.37600
N1254       N  0.69909226  0.94031285  0.93252557    -0.37600
N1255       N  0.70575838  0.76870780  0.99454469    -0.37100
N1256       N  0.71820865  0.90531192  0.83536753    -0.37100
C1257       C  0.81869277  0.88894797  0.72045380    -0.03700
C1258       C  0.85529502  0.89375111  0.71424882    -0.00900
C1259       C  0.86929570  0.92766493  0.70649788     0.04100
C1260       C  0.84779931  0.95735815  0.70789638    -0.03700
C1261       C  0.81127320  0.95252299  0.71214575    -0.00800
C1262       C  0.79666367  0.91840024  0.71571300     0.04100
C1263       C  0.87928411  0.86473817  0.71768874     0.38800
C1264       C  0.78870715  0.98293267  0.71521376     0.38800
C1265       C  0.75883576  0.91419439  0.71426501     0.37200
C1266       C  0.90617743  0.93254985  0.69855992     0.37200
N1267       N  0.72869948  0.91102914  0.71274625    -0.37600
N1268       N  0.93546337  0.93667009  0.69169557    -0.37600
N1269       N  0.77059849  0.00695194  0.71840558    -0.37100
N1270       N  0.89870244  0.84183077  0.72067546    -0.37100
C1271       C  0.94235725  0.72227366  0.85122284    -0.03700
C1272       C  0.93034503  0.69914267  0.82427458    -0.00900
C1273       C  0.89613871  0.70253199  0.81055817     0.04100
C1274       C  0.87274036  0.72692376  0.82555827    -0.03700
C1275       C  0.88285616  0.74599400  0.85579956    -0.00800
C1276       C  0.91782825  0.74512729  0.86750903     0.04100
C1277       C  0.95383681  0.67410187  0.80817716     0.38800
C1278       C  0.85801597  0.76910302  0.87297265     0.38800
C1279       C  0.92903977  0.77087048  0.89375525     0.37200
C1280       C  0.88557039  0.68222421  0.77979687     0.37200
N1281       N  0.93747257  0.79216475  0.91416279    -0.37600
N1282       N  0.87730161  0.66617825  0.75510239    -0.37600
N1283       N  0.83809333  0.78732498  0.88672678    -0.37100
N1284       N  0.97176731  0.65359608  0.79487695    -0.37100
C1285       C  0.40873195  0.90126661  0.01987883    -0.03700
C1286       C  0.37724634  0.90450570  0.03939610    -0.00900
C1287       C  0.34970761  0.87914427  0.03549198     0.04100
C1288       C  0.35544143  0.84663162  0.01776117    -0.03700
C1289       C  0.38884630  0.84167304  0.00231006    -0.00800
C1290       C  0.41346063  0.86988505  0.00019000     0.04100
C1291       C  0.37244060  0.93477279  0.06245343     0.38800
C1292       C  0.39994755  0.80701631  0.99128127     0.38800
C1293       C  0.44299498  0.86684278  0.97643651     0.37200
C1294       C  0.31504458  0.88847378  0.04722868     0.37200
N1295       N  0.46631038  0.86449504  0.95718576    -0.37600
N1296       N  0.28767992  0.89749097  0.05631969    -0.37600
N1297       N  0.41120106  0.77996182  0.98320952    -0.37100
N1298       N  0.36844330  0.95900136  0.08067600    -0.37100
C1299       C  0.33032782  0.11840434  0.97954969    -0.03700
C1300       C  0.35518129  0.12923495  0.00548535    -0.00900
C1301       C  0.38557481  0.10906852  0.01132644     0.04100
C1302       C  0.39596757  0.08333496  0.98651515    -0.03700
C1303       C  0.37611788  0.07961581  0.95567956    -0.00800
C1304       C  0.34158570  0.09228079  0.95489571     0.04100
C1305       C  0.35179711  0.16220157  0.02449307     0.38800
C1306       C  0.38991461  0.05961355  0.92617552     0.38800
C1307       C  0.31749569  0.07281167  0.93265571     0.37200
C1308       C  0.40587572  0.11468657  0.04303256     0.37200
N1309       N  0.30030167  0.05452222  0.91513074    -0.37600
N1310       N  0.42203006  0.11904303  0.06838850    -0.37600
N1311       N  0.40102408  0.04378779  0.90266292    -0.37100
N1312       N  0.35099394  0.18880295  0.03966965    -0.37100
C1313       C  0.65963290  0.88158189  0.01825727    -0.03700
C1314       C  0.65488844  0.91190596  0.03999272    -0.00900
C1315       C  0.62140707  0.92657693  0.04499944     0.04100
C1316       C  0.59367603  0.91764726  0.02203297    -0.03700
C1317       C  0.59809520  0.88819283  0.99938265    -0.00800
C1318       C  0.62981128  0.86885606  0.99937977     0.04100
C1319       C  0.68460551  0.93223201  0.05279145     0.38800
C1320       C  0.57033803  0.87812920  0.97527557     0.38800
C1321       C  0.63038486  0.83553162  0.98065545     0.37200
C1322       C  0.61613631  0.95296746  0.07230035     0.37200
N1323       N  0.62854396  0.80875061  0.96583914    -0.37600
N1324       N  0.61179059  0.97385384  0.09416988    -0.37600
N1325       N  0.54834264  0.86996758  0.95589082    -0.37100
N1326       N  0.70720490  0.95061102  0.06223718    -0.37100
C1327       C  0.64023119  0.14610492  0.98421205    -0.03700
C1328       C  0.61255890  0.15362551  0.00811714    -0.00900
C1329       C  0.58529099  0.12843648  0.01386398     0.04100
C1330       C  0.58022030  0.09996567  0.99012247    -0.03700
C1331       C  0.60213042  0.09838052  0.96049231    -0.00800
C1332       C  0.63436608  0.11712776  0.96058580     0.04100
C1333       C  0.60886963  0.18820421  0.02384997     0.38800
C1334       C  0.59324345  0.07445167  0.93171298     0.38800
C1335       C  0.66205237  0.10157640  0.94019122     0.37200
C1336       C  0.56247097  0.13213932  0.04408205     0.37200
N1337       N  0.68231888  0.08603957  0.92392866    -0.37600
N1338       N  0.54428271  0.13520588  0.06820083    -0.37600
N1339       N  0.58598041  0.05537048  0.90888208    -0.37100
N1340       N  0.60316329  0.21557091  0.03616953    -0.37100
C1341       C  0.00164012  0.42784297  0.89935177    -0.03700
C1342       C  0.03218815  0.40894746  0.89191522    -0.00900
C1343       C  0.02957722  0.37593439  0.87451240     0.04100
C1344       C  0.99879735  0.36679598  0.85452230    -0.03700
C1345       C  0.97184655  0.39232196  0.85420475    -0.00800
C1346       C  0.97125336  0.41959913  0.87978642     0.04100
C1347       C  0.06556017  0.42163613  0.90570246     0.38800
C1348       C  0.94496434  0.39145707  0.82756861     0.38800
C1349       C  0.93897959  0.43808765  0.88661898     0.37200
C1350       C  0.05786050  0.35165912  0.88044453     0.37200
N1351       N  0.91320908  0.45283255  0.89202300    -0.37600
N1352       N  0.08066040  0.33277773  0.88603119    -0.37600
N1353       N  0.92341056  0.39236686  0.80633423    -0.37100
N1354       N  0.09212538  0.43190534  0.91655168    -0.37100
C1355       C  0.99015765  0.34226688  0.12099958    -0.03700
C1356       C  0.97154614  0.34697932  0.08929306    -0.00900
C1357       C  0.97226823  0.37977077  0.07201495     0.04100
C1358       C  0.99811101  0.40558729  0.08055173    -0.03700
C1359       C  0.02014771  0.39915292  0.10950939    -0.00800
C1360       C  0.01366096  0.36979299  0.13160631     0.04100
C1361       C  0.95586342  0.31709675  0.07104626     0.38800
C1362       C  0.05026146  0.42206848  0.11609969     0.38800
C1363       C  0.03005228  0.36992843  0.16569525     0.37200
C1364       C  0.94705156  0.38617317  0.04444566     0.37200
N1365       N  0.04327275  0.37245473  0.19290118    -0.37600
N1366       N  0.92693789  0.39116900  0.02247179    -0.37600
N1367       N  0.07442992  0.44018993  0.12121011    -0.37100
N1368       N  0.94459830  0.29393066  0.05437885    -0.37100
C1369       C  0.00603972  0.67458056  0.87933607    -0.03700
C1370       C  0.98711742  0.67313907  0.91134030    -0.00900
C1371       C  0.98303062  0.64114358  0.92959944     0.04100
C1372       C  0.00514829  0.61255622  0.92205692    -0.03700
C1373       C  0.02734325  0.61504781  0.89233581    -0.00800
C1374       C  0.02500526  0.64410648  0.86928600     0.04100
C1375       C  0.97658198  0.70515539  0.92902434     0.38800
C1376       C  0.05288054  0.58786322  0.88543556     0.38800
C1377       C  0.04071783  0.64073232  0.83493616     0.37200
C1378       C  0.95666102  0.63824519  0.95693779     0.37200
N1379       N  0.05310002  0.63541852  0.80769491    -0.37600
N1380       N  0.93549975  0.63595175  0.97860067    -0.37600
N1381       N  0.07320682  0.56617250  0.87990465    -0.37100
N1382       N  0.96941616  0.72996206  0.94524863    -0.37100
C1383       C  0.00363548  0.59137886  0.10428423    -0.03700
C1384       C  0.03042518  0.61359597  0.11799184    -0.00900
C1385       C  0.02345818  0.63613131  0.14693268     0.04100
C1386       C  0.99392708  0.62966625  0.16888534    -0.03700
C1387       C  0.96762404  0.60608121  0.15531522    -0.00800
C1388       C  0.97083822  0.59134189  0.12129250     0.04100
C1389       C  0.06539738  0.61297243  0.10321275     0.38800
C1390       C  0.93920006  0.59241818  0.17648568     0.38800
C1391       C  0.94115558  0.57309590  0.10508909     0.37200
C1392       C  0.04485727  0.66770214  0.15113213     0.37200
N1393       N  0.91768148  0.55844447  0.09207820    -0.37600
N1394       N  0.06196328  0.69317366  0.15290919    -0.37600
N1395       N  0.91619872  0.57898918  0.19126367    -0.37100
N1396       N  0.09339225  0.61269305  0.09158571    -0.37100
C1397       C  0.36626881  0.49232839  0.15315284    -0.03700
C1398       C  0.39970382  0.50858865  0.15480916    -0.00900
C1399       C  0.41959738  0.51403566  0.12420364     0.04100
C1400       C  0.41163604  0.49496540  0.09302538    -0.03700
C1401       C  0.38044227  0.47406935  0.09265891    -0.00800
C1402       C  0.35650910  0.47539004  0.12124661     0.04100
C1403       C  0.41665484  0.51409118  0.18832460     0.38800
C1404       C  0.37363774  0.44957743  0.06398620     0.38800
C1405       C  0.32223410  0.45920617  0.11711761     0.37200
C1406       C  0.44845944  0.53923181  0.12559895     0.37200
N1407       N  0.29500610  0.44627896  0.11225208    -0.37600
N1408       N  0.47122800  0.55961414  0.12751164    -0.37600
N1409       N  0.36804763  0.42949333  0.04156943    -0.37100
N1410       N  0.43189887  0.51668239  0.21440932    -0.37100
C1411       C  0.58842804  0.52063516  0.08882248    -0.03700
C1412       C  0.61906705  0.50099538  0.09347599    -0.00900
C1413       C  0.63874728  0.50439568  0.12497558     0.04100
C1414       C  0.62602844  0.52471772  0.15381406    -0.03700
C1415       C  0.59542318  0.54467196  0.14826393    -0.00800
C1416       C  0.57916235  0.54512475  0.11507111     0.04100
C1417       C  0.63020743  0.47697056  0.06595359     0.38800
C1418       C  0.57714267  0.56095824  0.17722820     0.38800
C1419       C  0.55328039  0.57150788  0.10743360     0.37200
C1420       C  0.67219276  0.48728094  0.12651076     0.37200
N1421       N  0.53369840  0.59339721  0.10069894    -0.37600
N1422       N  0.69906240  0.47366154  0.12534515    -0.37600
N1423       N  0.56043168  0.57325538  0.19936048    -0.37100
N1424       N  0.63923790  0.45793869  0.04392116    -0.37100
C1425       C  0.34960372  0.48417704  0.85576434    -0.03700
C1426       C  0.38103317  0.50342211  0.84876322    -0.00900
C1427       C  0.40625879  0.50964549  0.87545368     0.04100
C1428       C  0.40467082  0.49085795  0.90737441    -0.03700
C1429       C  0.37582413  0.46754228  0.91237164    -0.00800
C1430       C  0.34721455  0.46695810  0.88868492     0.04100
C1431       C  0.38980918  0.51427063  0.81353031     0.38800
C1432       C  0.37581163  0.44320185  0.94149771     0.38800
C1433       C  0.31485800  0.45076863  0.90043199     0.37200
C1434       C  0.43342401  0.53614568  0.86988359     0.37200
N1435       N  0.28986516  0.43805263  0.91232697    -0.37600
N1436       N  0.45469381  0.55761960  0.86498081    -0.37600
N1437       N  0.37597400  0.42331306  0.96433730    -0.37100
N1438       N  0.39915313  0.52257757  0.78587620    -0.37100
C1439       C  0.62552661  0.51775168  0.83862259    -0.03700
C1440       C  0.59326605  0.53540279  0.84177505    -0.00900
C1441       C  0.57560955  0.53730781  0.87416698     0.04100
C1442       C  0.58513393  0.51529752  0.90202139    -0.03700
C1443       C  0.61600045  0.49543911  0.89862338    -0.00800
C1444       C  0.63701849  0.49803442  0.86785763     0.04100
C1445       C  0.57475008  0.54633228  0.81082161     0.38800
C1446       C  0.62556360  0.47145500  0.92631119     0.38800
C1447       C  0.66990647  0.47976380  0.86677993     0.37200
C1448       C  0.54737705  0.56204203  0.87879833     0.37200
N1449       N  0.69613370  0.46495358  0.86754440    -0.37600
N1450       N  0.52551840  0.58244487  0.88290753    -0.37600
N1451       N  0.63307013  0.45224721  0.94839414    -0.37100
N1452       N  0.55820758  0.55348812  0.78663380    -0.37100
C1453       C  0.10728162  0.58486216  0.49645568    -0.03700
C1454       C  0.13010941  0.57206589  0.52217141    -0.00900
C1455       C  0.16414501  0.58620491  0.52559978     0.04100
C1456       C  0.17330946  0.61906727  0.51048590    -0.03700
C1457       C  0.14815946  0.63504922  0.48842580    -0.00800
C1458       C  0.11665700  0.61664899  0.47937144     0.04100
C1459       C  0.11867088  0.54409425  0.54532859     0.38800
C1460       C  0.15391071  0.67012872  0.47466529     0.38800
C1461       C  0.09463291  0.62992201  0.45170293     0.37200
C1462       C  0.19072563  0.56333886  0.53912946     0.37200
N1463       N  0.07715660  0.64057363  0.42956219    -0.37600
N1464       N  0.21127584  0.54335562  0.54825233    -0.37600
N1465       N  0.15676931  0.69833536  0.46343034    -0.37100
N1466       N  0.10931302  0.52264692  0.56472787    -0.37100
C1467       C  0.09584752  0.40744687  0.48396697    -0.03700
C1468       C  0.12002419  0.41205937  0.51139869    -0.00900
C1469       C  0.15282808  0.39545283  0.51015858     0.04100
C1470       C  0.15908823  0.36707068  0.48623805    -0.03700
C1471       C  0.13139584  0.35811785  0.46250005    -0.00800
C1472       C  0.10175439  0.38018126  0.45933862     0.04100
C1473       C  0.11060011  0.43329834  0.54164431     0.38800
C1474       C  0.13102826  0.32513313  0.44317916     0.38800
C1475       C  0.07766205  0.37516819  0.43035994     0.37200
C1476       C  0.18047512  0.41143483  0.53096281     0.37200
N1477       N  0.05864729  0.37141701  0.40699531    -0.37600
N1478       N  0.20124566  0.42652259  0.54754690    -0.37600
N1479       N  0.12846500  0.29861568  0.42797481    -0.37100
N1480       N  0.10243481  0.44872934  0.56657719    -0.37100
C1481       C  0.90764920  0.41831065  0.48976978    -0.03700
C1482       C  0.89936846  0.38734933  0.46994849    -0.00900
C1483       C  0.86540261  0.37116794  0.47213094     0.04100
C1484       C  0.83832377  0.38743608  0.49160020    -0.03700
C1485       C  0.84663033  0.41938194  0.50959951    -0.00800
C1486       C  0.88148804  0.43182744  0.51227212     0.04100
C1487       C  0.92525328  0.37273435  0.44638059     0.38800
C1488       C  0.81914123  0.44348590  0.51904172     0.38800
C1489       C  0.88981819  0.46055650  0.53654518     0.37200
C1490       C  0.85801756  0.33893690  0.45269840     0.37200
N1491       N  0.89643432  0.48337658  0.55595768    -0.37600
N1492       N  0.85257576  0.31320282  0.43686951    -0.37600
N1493       N  0.79795087  0.46423757  0.52472631    -0.37100
N1494       N  0.94603047  0.36091521  0.42773089    -0.37100
C1495       C  0.92169298  0.59668886  0.48941233    -0.03700
C1496       C  0.91523578  0.60621694  0.52462136    -0.00900
C1497       C  0.89245540  0.63436941  0.53308236     0.04100
C1498       C  0.87298544  0.65149954  0.50610869    -0.03700
C1499       C  0.87307951  0.63407233  0.47294370    -0.00800
C1500       C  0.90048086  0.61132532  0.46334854     0.04100
C1501       C  0.93260319  0.58695177  0.55228701     0.38800
C1502       C  0.84164544  0.63296875  0.45194841     0.38800
C1503       C  0.90684746  0.60358315  0.42661245     0.37200
C1504       C  0.88743586  0.64116214  0.57002248     0.37200
N1505       N  0.91220932  0.59783690  0.39723345    -0.37600
N1506       N  0.88497346  0.64315583  0.60025543    -0.37600
N1507       N  0.81643810  0.63094747  0.43523267    -0.37100
N1508       N  0.94642844  0.57145669  0.57414376    -0.37100
C1509       C  0.49059626  0.09379574  0.57823855    -0.03700
C1510       C  0.46609373  0.12048476  0.57202708    -0.00900
C1511       C  0.46772251  0.15263094  0.59123847     0.04100
C1512       C  0.48808185  0.15602774  0.62230820    -0.03700
C1513       C  0.50906077  0.12675748  0.63134367    -0.00800
C1514       C  0.51218272  0.09730417  0.60815199     0.04100
C1515       C  0.44023879  0.11564497  0.54446369     0.38800
C1516       C  0.52656756  0.12499491  0.66475196     0.38800
C1517       C  0.53855028  0.07103650  0.61462240     0.37200
C1518       C  0.45230340  0.18315812  0.57540651     0.37200
N1519       N  0.55973929  0.05021016  0.61961093    -0.37600
N1520       N  0.44069540  0.20659301  0.56036904    -0.37600
N1521       N  0.54085506  0.12037950  0.69099178    -0.37100
N1522       N  0.41962461  0.11172239  0.52252419    -0.37100
C1523       C  0.49166782  0.13389924  0.33714792    -0.03700
C1524       C  0.51880441  0.13926295  0.36227331    -0.00900
C1525       C  0.52645179  0.11277814  0.38679986     0.04100
C1526       C  0.50090049  0.08694852  0.39520881    -0.03700
C1527       C  0.46925443  0.08686044  0.37626214    -0.00800
C1528       C  0.46665695  0.10650100  0.34492542     0.04100
C1529       C  0.53570163  0.17339498  0.36705648     0.38800
C1530       C  0.44007953  0.06472959  0.38780869     0.38800
C1531       C  0.43978883  0.09497992  0.32069188     0.37200
C1532       C  0.56071548  0.11224897  0.40303804     0.37200
N1533       N  0.41775547  0.08325715  0.30315977    -0.37600
N1534       N  0.58814752  0.11162886  0.41577651    -0.37600
N1535       N  0.41689519  0.04705838  0.39702081    -0.37100
N1536       N  0.54926450  0.20043084  0.37261777    -0.37100
C1537       C  0.51051149  0.89968897  0.40655426    -0.03700
C1538       C  0.48300413  0.87640365  0.41563946    -0.00900
C1539       C  0.48161684  0.84183254  0.40174260     0.04100
C1540       C  0.50210364  0.83250048  0.37199273    -0.03700
C1541       C  0.52515761  0.85904198  0.35834297    -0.00800
C1542       C  0.53152144  0.89099238  0.37734802     0.04100
C1543       C  0.45549605  0.88856198  0.43884505     0.38800
C1544       C  0.54058801  0.85549135  0.32386834     0.38800
C1545       C  0.55947751  0.91491043  0.36665376     0.37200
C1546       C  0.46230318  0.81578700  0.42171040     0.37200
N1547       N  0.58173876  0.93403861  0.35801778    -0.37600
N1548       N  0.44727713  0.79657471  0.43996287    -0.37600
N1549       N  0.55277385  0.85469737  0.29605076    -0.37100
N1550       N  0.43304240  0.89914343  0.45619237    -0.37100
C1551       C  0.50959176  0.84829205  0.63041964    -0.03700
C1552       C  0.52461388  0.88154632  0.64008432    -0.00900
C1553       C  0.52454111  0.91034975  0.61629213     0.04100
C1554       C  0.50660226  0.90755402  0.58386338    -0.03700
C1555       C  0.48873985  0.87543881  0.57618989    -0.00800
C1556       C  0.49358887  0.84542300  0.59709783     0.04100
C1557       C  0.54044477  0.88694462  0.67412190     0.38800
C1558       C  0.46517348  0.87278780  0.54658302     0.38800
C1559       C  0.48695068  0.81108348  0.58136638     0.37200
C1560       C  0.54340186  0.94271607  0.62523122     0.37200
N1561       N  0.48305884  0.78435326  0.56686717    -0.37600
N1562       N  0.55832499  0.96852669  0.63271477    -0.37600
N1563       N  0.44569438  0.86990437  0.52356217    -0.37100
N1564       N  0.55311624  0.89343862  0.70100289    -0.37100
loop_ 
_geom_bond_atom_site_label_1 
_geom_bond_atom_site_label_2 
_geom_bond_distance 
_geom_bond_site_symmetry_2 
_ccdc_geom_bond_type 
N1            C6   1.356   1_565  A
N1            C5   1.358       .  A
N1           H33   1.038       .  S
N2            C9   1.353       .  A
N2           C10   1.355       .  A
N3            C8   1.356       .  A
N3            C7   1.359   1_545  A
N3           H34   1.041       .  S
N4           C11   1.358       .  A
N4           C12   1.358       .  A
C5           C13   1.384       .  A
C5           C21   1.419       .  A
C6           C22   1.429       .  A
C6           C14   1.391       .  A
C7           C15   1.387       .  A
C7           C24   1.425       .  A
C8           C23   1.423       .  A
C8           C16   1.387       .  A
C9           C21   1.418       .  A
C9           C17   1.385       .  A
C10          C24   1.423       .  A
C10          C18   1.388       .  A
C11          C19   1.387       .  A
C11          C22   1.426       .  A
C12          C20   1.386       .  A
C12          C23   1.425       .  A
C13          C14   1.375   1_565  A
C13          H25   1.082       .  S
C14          H26   1.081       .  S
C15          C16   1.383   1_565  A
C15          H27   1.082       .  S
C16          H28   1.082       .  S
C17          C18   1.375       .  A
C17          H29   1.083       .  S
C18          H30   1.082       .  S
C19          C20   1.369       .  A
C19          H31   1.080       .  S
C20          H32   1.082       .  S
C21        C1537   1.511       .  S
C22        C1526   1.514       .  S
C23        C1509   1.521       .  S
C24        C1554   1.523       .  S
N35          C40   1.359       .  A
N35          C39   1.357       .  A
N35          H67   1.039       .  S
N36          C43   1.356   1_455  A
N36          C44   1.356       .  A
N37          C42   1.356       .  A
N37          C41   1.357       .  A
N37          H68   1.040       .  S
N38          C45   1.353   1_455  A
N38          C46   1.355       .  A
C39          C47   1.387       .  A
C39          C55   1.427       .  A
C40          C56   1.424       .  A
C40          C48   1.387       .  A
C41          C49   1.388       .  A
C41          C58   1.423       .  A
C42          C57   1.421       .  A
C42          C50   1.386       .  A
C43          C55   1.425       .  A
C43          C51   1.386       .  A
C44          C58   1.422       .  A
C44          C52   1.385       .  A
C45          C53   1.388       .  A
C45          C56   1.421       .  A
C46          C54   1.385       .  A
C46          C57   1.417       .  A
C47          C48   1.374       .  A
C47          H59   1.082       .  S
C48          H60   1.080       .  S
C49          C50   1.377       .  A
C49          H61   1.083       .  S
C50          H62   1.082       .  S
C51          C52   1.384   1_655  A
C51          H63   1.082       .  S
C52          H64   1.082       .  S
C53          C54   1.376   1_655  A
C53          H65   1.082       .  S
C54          H66   1.082       .  S
C55        C1481   1.526       .  S
C56        C1495   1.511       .  S
C57        C1453   1.514       .  S
C58        C1467   1.516       .  S
N69          C74   1.359       .  A
N69          C73   1.356       .  A
N69         H101   1.042       .  S
N70          C77   1.351       .  A
N70          C78   1.353   1_556  A
N71          C76   1.356       .  A
N71          C75   1.355       .  A
N71         H102   1.042       .  S
N72          C79   1.354       .  A
N72          C80   1.354   1_556  A
C73          C81   1.388       .  A
C73          C89   1.424       .  A
C74          C90   1.425       .  A
C74          C82   1.386       .  A
C75          C83   1.386       .  A
C75          C92   1.419       .  A
C76          C91   1.424       .  A
C76          C84   1.389       .  A
C77          C89   1.417       .  A
C77          C85   1.387       .  A
C78          C92   1.416       .  A
C78          C86   1.385       .  A
C79          C87   1.386       .  A
C79          C90   1.423       .  A
C80          C88   1.387       .  A
C80          C91   1.422       .  A
C81          C82   1.380       .  A
C81          H93   1.082       .  S
C82          H94   1.082       .  S
C83          C84   1.380       .  A
C83          H95   1.083       .  S
C84          H96   1.082       .  S
C85          C86   1.382   1_556  A
C85          H97   1.082       .  S
C86          H98   1.082       .  S
C87          C88   1.381   1_556  A
C87          H99   1.082       .  S
C88         H100   1.082       .  S
C89        C1442   1.511       .  S
C90        C1428   1.527       .  S
C91        C1400   1.522       .  S
C92        C1411   1.511       .  S
N103        C108   1.358       .  A
N103        C107   1.358   1_554  A
N103        H135   1.036   1_455  S
N104        C111   1.354   1_455  A
N104        C112   1.354   1_455  A
N105        C110   1.358   1_556  A
N105        C109   1.357       .  A
N105        H136   1.037   1_455  S
N106        C113   1.356       .  A
N106        C114   1.358       .  A
C107        C115   1.387       .  A
C107        C123   1.428       .  A
C108        C124   1.426       .  A
C108        C116   1.388       .  A
C109        C117   1.392       .  A
C109        C126   1.429       .  A
C110        C125   1.420       .  A
C110        C118   1.383       .  A
C111        C123   1.421   1_655  A
C111        C119   1.386       .  A
C112        C126   1.420   1_655  A
C112        C120   1.386       .  A
C113        C121   1.390   1_455  A
C113        C124   1.429       .  A
C114        C122   1.384   1_455  A
C114        C125   1.420       .  A
C115        C116   1.373   1_556  A
C115        H127   1.082       .  S
C116        H128   1.079       .  S
C117        C118   1.369   1_556  A
C117        H129   1.079       .  S
C118        H130   1.082       .  S
C119        C120   1.371       .  A
C119        H131   1.082       .  S
C120        H132   1.081       .  S
C121        C122   1.369       .  A
C121        H133   1.081       .  S
C122        H134   1.082       .  S
C123       C1372   1.517       .  S
C124       C1383   1.514       .  S
C125       C1358   1.520   1_455  S
C126       C1341   1.509       .  S
N137        C142   1.360       .  A
N137        C141   1.362   1_545  A
N137        H169   1.034       .  S
N138        C145   1.358       .  A
N138        C146   1.356       .  A
N139        C144   1.360   1_564  A
N139        C143   1.360       .  A
N139        H170   1.036   1_565  S
N140        C147   1.356       .  A
N140        C148   1.357       .  A
C141        C149   1.386   1_554  A
C141        C157   1.431       .  A
C142        C158   1.435   1_554  A
C142        C150   1.390   1_554  A
C143        C151   1.385   1_554  A
C143        C160   1.427       .  A
C144        C159   1.432       .  A
C144        C152   1.390       .  A
C145        C157   1.425       .  A
C145        C153   1.385       .  A
C146        C160   1.427       .  A
C146        C154   1.388       .  A
C147        C155   1.387       .  A
C147        C158   1.424       .  A
C148        C156   1.386       .  A
C148        C159   1.422       .  A
C149        C150   1.367   1_565  A
C149        H161   1.081       .  S
C150        H162   1.079       .  S
C151        C152   1.368   1_565  A
C151        H163   1.082       .  S
C152        H164   1.079       .  S
C153        C154   1.379       .  A
C153        H165   1.082       .  S
C154        H166   1.082       .  S
C155        C156   1.371       .  A
C155        H167   1.082       .  S
C156        H168   1.082       .  S
C157       C1316   1.528       .  S
C158       C1330   1.516       .  S
C159       C1302   1.517       .  S
C160       C1285   1.525       .  S
O171        C187   1.278       .  A
O171       Zn177   2.055       .  S
C172       C1243   1.519       .  S
C172        O188   1.278       .  A
C172        O185   1.277       .  A
O173        C186   1.281       .  A
O173       Cd180   2.092       .  S
O174        C192   1.275       .  A
O174       Cd183   2.071       .  S
O175        C189   1.274       .  A
O175       Cd179   2.075       .  S
O176        C187   1.274       .  A
O176       Cd179   2.068       .  S
Zn177       O188   2.042       .  S
Zn177       O190   2.035       .  S
Zn177       O182   1.959       .  S
O178        C189   1.276       .  A
O178       Cd183   2.073       .  S
Cd179       O181   2.039       .  S
Cd179       O182   1.992       .  S
Cd180       O184   2.127       .  S
Cd180       O193   2.100       .  S
Cd180       O182   2.020       .  S
O181        C191   1.268       .  A
O182       Cd183   2.008       .  S
Cd183       O185   2.100       .  S
O184        C191   1.280       .  A
C186       C1215   1.499       .  S
C186        O190   1.277       .  A
C187       C1274   1.488       .  S
C189       C1257   1.509       .  S
C191       C1201   1.522       .  S
C192       C1229   1.495       .  S
C192        O193   1.279       .  A
O194        C210   1.273       .  A
O194       Zn200   2.007       .  S
C195       C1190   1.480       .  S
C195        O211   1.272       .  A
C195        O208   1.278       .  A
O196        C209   1.277       .  A
O196       Cd203   2.079       .  S
O197        C215   1.276       .  A
O197       Cd206   2.085       .  S
O198        C212   1.275       .  A
O198       Cd202   2.047       .  S
O199        C210   1.274       .  A
O199       Cd202   2.086       .  S
Zn200       O211   1.994       .  S
Zn200       O213   2.006       .  S
Zn200       O205   1.930       .  S
O201        C212   1.281       .  A
O201       Cd206   2.113       .  S
Cd202       O204   2.075       .  S
Cd202       O205   1.997       .  S
Cd203       O207   2.078       .  S
Cd203       O216   2.071       .  S
Cd203       O205   1.985       .  S
O204        C214   1.275       .  A
O205       Cd206   2.019       .  S
Cd206       O208   2.089       .  S
O207        C214   1.276       .  A
C209       C1117   1.490       .  S
C209        O213   1.272       .  A
C210       C1145   1.508       .  S
C212       C1173   1.490       .  S
C214       C1159   1.508       .  S
C215       C1131   1.503       .  S
C215        O216   1.277       .  A
O217        C233   1.276       .  A
O217       Zn223   2.033       .  S
C218       C1092   1.481       .  S
C218        O234   1.275       .  A
C218        O231   1.276       .  A
O219        C232   1.279       .  A
O219       Cd226   2.102       .  S
O220        C238   1.275       .  A
O220       Cd229   2.073       .  S
O221        C235   1.273       .  A
O221       Cd225   2.067       .  S
O222        C233   1.269       .  A
O222       Cd225   2.039       .  S
Zn223       O234   2.019       .  S
Zn223       O236   2.038       .  S
Zn223       O228   1.957       .  S
O224        C235   1.278       .  A
O224       Cd229   2.106       .  S
Cd225       O227   2.060       .  S
Cd225       O228   2.002       .  S
Cd226       O230   2.088       .  S
Cd226       O239   2.106       .  S
Cd226       O228   2.003       .  S
O227        C237   1.272       .  A
O228       Cd229   2.015       .  S
Cd229       O231   2.070       .  S
O230        C237   1.280       .  A
C232       C1075   1.500       .  S
C232        O236   1.276       .  A
C233       C1061   1.476       .  S
C235       C1106   1.520       .  S
C237       C1033   1.486       .  S
C238       C1047   1.490       .  S
C238        O239   1.280       .  A
O240        C256   1.279       .  A
O240       Zn246   2.048       .  S
C241        C966   1.488       .  S
C241        O257   1.278       .  A
C241        O254   1.275       .  A
O242        C255   1.276       .  A
O242       Cd249   2.078       .  S
O243        C261   1.271       .  A
O243       Cd252   2.057       .  S
O244        C258   1.276       .  A
O244       Cd248   2.067       .  S
O245        C256   1.274       .  A
O245       Cd248   2.060       .  S
Zn246       O257   2.053       .  S
Zn246       O259   2.036       .  S
Zn246       O251   1.958       .  S
O247        C258   1.277       .  A
O247       Cd252   2.094       .  S
Cd248       O250   2.074       .  S
Cd248       O251   1.995       .  S
Cd249       O253   2.087       .  S
Cd249       O262   2.090       .  S
Cd249       O251   1.995       .  S
O250        C260   1.273       .  A
O251       Cd252   2.016       .  S
Cd252       O254   2.071       .  S
O253        C260   1.278       .  A
C255        C980   1.482       .  S
C255        O259   1.276       .  A
C256       C1005   1.489       .  S
C258        C952   1.492       .  S
C260        C994   1.503       .  S
C261       C1019   1.491       .  S
C261        O262   1.280       .  A
O263        C279   1.278       .  A
O263       Zn269   2.037       .  S
C264        C935   1.481       .  S
C264        O280   1.276       .  A
C264        O277   1.274       .  A
O265        C278   1.278       .  A
O265       Cd272   2.079       .  S
O266        C284   1.275       .  A
O266       Cd275   2.069       .  S
O267        C281   1.275       .  A
O267       Cd271   2.069       .  S
O268        C279   1.275       .  A
O268       Cd271   2.080       .  S
Zn269       O280   2.036       .  S
Zn269       O282   2.015       .  S
Zn269       O274   1.945       .  S
O270        C281   1.278       .  A
O270       Cd275   2.088       .  S
Cd271       O273   2.075       .  S
Cd271       O274   1.983       .  S
Cd272       O276   2.092       .  S
Cd272       O285   2.099       .  S
Cd272       O274   1.997       .  S
O273        C283   1.275       .  A
O274       Cd275   1.996       .  S
Cd275       O277   2.065       .  S
O276        C283   1.277       .  A
C278        C879   1.490       .  S
C278        O282   1.273       .  A
C279        C893   1.487       .  S
C281        C921   1.514       .  S
C283        C907   1.487       .  S
C284        C868   1.495       .  S
C284        O285   1.280       .  A
O286        C302   1.275       .  A
O286       Zn292   2.021       .  S
C287        C854   1.476       .  S
C287        O303   1.274       .  A
C287        O300   1.273       .  A
O288        C301   1.275       .  A
O288       Cd295   2.063       .  S
O289        C307   1.274       .  A
O289       Cd298   2.061       .  S
O290        C304   1.282       .  A
O290       Cd294   2.122       .  S
O291        C302   1.281       .  A
O291       Cd294   2.089       .  S
Zn292       O303   2.015       .  S
Zn292       O305   2.034       .  S
Zn292       O297   1.949       .  S
O293        C304   1.274       .  A
O293       Cd298   2.054       .  S
Cd294       O296   2.102       .  S
Cd294       O297   2.012       .  S
Cd295       O299   2.041       .  S
Cd295       O308   2.055       .  S
Cd295       O297   1.973       .  S
O296        C306   1.277       .  A
O297       Cd298   1.987       .  S
Cd298       O300   2.067       .  S
O299        C306   1.273       .  A
C301        C798   1.497       .  S
C301        O305   1.274       .  A
C302        C809   1.484       .  S
C304        C823   1.494       .  S
C306        C837   1.501       .  S
C307        C784   1.472       .  S
C307        O308   1.271       .  A
O309        C325   1.276       .  A
O309       Zn315   2.055       .  S
C310        C739   1.485       .  S
C310        O326   1.276       .  A
C310        O323   1.276       .  A
O311        C324   1.279       .  A
O311       Cd318   2.091       .  S
O312        C330   1.275       .  A
O312       Cd321   2.081       .  S
O313        C327   1.274       .  A
O313       Cd317   2.066       .  S
O314        C325   1.274       .  A
O314       Cd317   2.066       .  S
Zn315       O326   2.028       .  S
Zn315       O328   1.998       .  S
Zn315       O320   1.958       .  S
O316        C327   1.274       .  A
O316       Cd321   2.066       .  S
Cd317       O319   2.061       .  S
Cd317       O320   1.993       .  S
Cd318       O322   2.102       .  S
Cd318       O331   2.101       .  S
Cd318       O320   2.007       .  S
O319        C329   1.274       .  A
O320       Cd321   2.009       .  S
Cd321       O323   2.083       .  S
O322        C329   1.279       .  A
C324        C756   1.501       .  S
C324        O328   1.272       .  A
C325        C728   1.515       .  S
C327        C767   1.486       .  S
C329        C711   1.487       .  S
C330        C700   1.490       .  S
C330        O331   1.279       .  A
N332        C337   1.358   1_455  A
N332        C336   1.360       .  A
N332        H364   1.019   1_445  S
N333        C340   1.355       .  A
N333        C341   1.353       .  A
N334        C339   1.360       .  A
N334        C338   1.359   1_655  A
N334        H365   1.019   1_545  S
N335        C342   1.356       .  A
N335        C343   1.357       .  A
C336        C344   1.386       .  A
C336        C352   1.429   1_545  A
C337        C353   1.433       .  A
C337        C345   1.391       .  A
C338        C346   1.387       .  A
C338        C355   1.429   1_545  A
C339        C354   1.434       .  A
C339        C347   1.390       .  A
C340        C352   1.419       .  A
C340        C348   1.385       .  A
C341        C355   1.421       .  A
C341        C349   1.387       .  A
C342        C350   1.387       .  A
C342        C353   1.427       .  A
C343        C351   1.386       .  A
C343        C354   1.427       .  A
C344        C345   1.369   1_455  A
C344        H356   1.081       .  S
C345        H357   1.080       .  S
C346        C347   1.369   1_455  A
C346        H358   1.082       .  S
C347        H359   1.080       .  S
C348        C349   1.374       .  A
C348        H360   1.082       .  S
C349        H361   1.082       .  S
C350        C351   1.375       .  A
C350        H362   1.082       .  S
C351        H363   1.082       .  S
C352        C686   1.514       .  S
C353        C672   1.513       .  S
C354        C644   1.518       .  S
C355        C658   1.510       .  S
N366        C370   1.371       .  A
N366        C367   1.368   1_565  A
N366        C655   1.465       .  S
C367        C368   1.379       .  A
C367        C630   1.478       .  S
C368        C369   1.355   1_545  A
C368        H371   1.083       .  S
C369        C370   1.381       .  A
C369        H372   1.083       .  S
C370        C851   1.492       .  S
O373        C389   1.278       .  A
O373       Zn379   2.045       .  S
C374        C616   1.507       .  S
C374        O390   1.277       .  A
C374        O387   1.276       .  A
O375        C388   1.275       .  A
O375       Cd382   2.062       .  S
O376        C394   1.273       .  A
O376       Cd385   2.062       .  S
O377        C391   1.273       .  A
O377       Cd381   2.042       .  S
O378        C389   1.271       .  A
O378       Cd381   2.058       .  S
Zn379       O390   2.048       .  S
Zn379       O392   2.019       .  S
Zn379       O384   1.959       .  S
O380        C391   1.273       .  A
O380       Cd385   2.079       .  S
Cd381       O383   2.050       .  S
Cd381       O384   1.974       .  S
Cd382       O386   2.115       .  S
Cd382       O395   2.091       .  S
Cd382       O384   2.009       .  S
O383        C393   1.271       .  A
O384       Cd385   2.005       .  S
Cd385       O387   2.066       .  S
O386        C393   1.278       .  A
C388        C571   1.477       .  S
C388        O392   1.275       .  A
C389        C599   1.514       .  S
C391        C627   1.486       .  S
C393        C585   1.508       .  S
C394        C557   1.480       .  S
C394        O395   1.279       .  A
N396        C400   1.371       .  A
N396        C397   1.369   1_655  A
N396       C1355   1.465       .  S
C397        C398   1.380   1_455  A
C397        C613   1.486       .  S
C398        C399   1.361       .  A
C398        H401   1.083   1_655  S
C399        C400   1.381       .  A
C399        H402   1.083       .  S
C400        C770   1.496       .  S
N403        C407   1.374   1_556  A
N403        C404   1.374       .  A
N403       C1299   1.475       .  S
C404        C405   1.382       .  A
C404       C1022   1.502       .  S
C405        C406   1.356   1_556  A
C405        H408   1.082       .  S
C406        C407   1.378       .  A
C406        H409   1.083       .  S
C407        C602   1.488       .  S
N410        C414   1.379       .  A
N410        C411   1.375       .  A
N410       C1523   1.477       .  S
C411        C412   1.375       .  A
C411        C753   1.486       .  S
C412        C413   1.351       .  A
C412        H415   1.083       .  S
C413        C414   1.385       .  A
C413        H416   1.082       .  S
C414        C588   1.510       .  S
N417        C421   1.377       .  A
N417        C418   1.374   1_545  A
N417        C641   1.472       .  S
C418        C419   1.378   1_565  A
C418        C924   1.490       .  S
C419        C420   1.356       .  A
C419        H422   1.083   1_545  S
C420        C421   1.383       .  A
C420        H423   1.082       .  S
C421        C742   1.507       .  S
N424        C428   1.376   1_556  A
N424        C425   1.376       .  A
N424       C1327   1.474       .  S
C425        C426   1.381       .  A
C425       C1089   1.496       .  S
C426        C427   1.352   1_556  A
C426        H429   1.083       .  S
C427        C428   1.377       .  A
C427        H430   1.083       .  S
C428        C725   1.487       .  S
N431        C435   1.375       .  A
N431        C432   1.371       .  A
N431       C1414   1.467       .  S
C432        C433   1.378       .  A
C432        C714   1.484       .  S
C433        C434   1.356       .  A
C433        H436   1.083       .  S
C434        C435   1.383       .  A
C434        H437   1.082       .  S
C435        C882   1.503       .  S
N438        C442   1.371       .  A
N438        C439   1.371       .  A
N438       C1484   1.466       .  S
C439        C440   1.383       .  A
C439        C697   1.496       .  S
C440        C441   1.362       .  A
C440        H443   1.083       .  S
C441        C442   1.379       .  A
C441        H444   1.082       .  S
C442       C1036   1.499       .  S
N445        C449   1.368       .  A
N445        C446   1.363       .  A
N445       C1397   1.460       .  S
C446        C447   1.381       .  A
C446        C574   1.477       .  S
C447        C448   1.360       .  A
C447        H450   1.083       .  S
C448        C449   1.380       .  A
C448        H451   1.083       .  S
C449        C840   1.491       .  S
N452        C456   1.373   1_655  A
N452        C453   1.372       .  A
N452       C1386   1.473       .  S
C453        C454   1.383       .  A
C453        C938   1.506       .  S
C454        C455   1.361   1_655  A
C454        H457   1.082       .  S
C455        C456   1.381       .  A
C455        H458   1.083       .  S
C456        C826   1.493       .  S
N459        C463   1.374   1_554  A
N459        C460   1.375       .  A
N459       C1288   1.467       .  S
C460        C461   1.381       .  A
C460        C812   1.492       .  S
C461        C462   1.353   1_554  A
C461        H464   1.083       .  S
C462        C463   1.379       .  A
C462        H465   1.083       .  S
C463       C1176   1.493       .  S
N466        C470   1.372       .  A
N466        C467   1.376       .  A
N466       C1540   1.469       .  S
C467        C468   1.383       .  A
C467        C795   1.505       .  S
C468        C469   1.358       .  A
C468        H471   1.082       .  S
C469        C470   1.378       .  A
C469        H472   1.083       .  S
C470        C910   1.489       .  S
N473        C477   1.362       .  A
N473        C474   1.371       .  A
N473       C1456   1.462       .  S
C474        C475   1.383       .  A
C474       C1120   1.499       .  S
C475        C476   1.361       .  A
C475        H478   1.082       .  S
C476        C477   1.378       .  A
C476        H479   1.083       .  S
C477        C781   1.476       .  S
N480        C484   1.379       .  A
N480        C481   1.378   1_554  A
N480       C1313   1.475       .  S
C481        C482   1.379       .  A
C481       C1246   1.495       .  S
C482        C483   1.355   1_556  A
C482        H485   1.083       .  S
C483        C484   1.380       .  A
C483        H486   1.083       .  S
C484        C896   1.504       .  S
N487        C491   1.377       .  A
N487        C488   1.375       .  A
N487       C1470   1.477       .  S
C488        C489   1.379       .  A
C488        C560   1.487       .  S
C489        C490   1.354       .  A
C489        H492   1.083       .  S
C490        C491   1.382       .  A
C490        H493   1.082       .  S
C491       C1008   1.504       .  S
N494        C498   1.370   1_655  A
N494        C495   1.371       .  A
N494       C1344   1.477       .  S
C495        C496   1.378       .  A
C495       C1103   1.503       .  S
C496        C497   1.361   1_655  A
C496        H499   1.083       .  S
C497        C498   1.387       .  A
C497        H500   1.082       .  S
C498        C991   1.522       .  S
N501        C505   1.373       .  A
N501        C502   1.371   1_565  A
N501        C683   1.469       .  S
C502        C503   1.379       .  A
C502        C977   1.486       .  S
C503        C504   1.357   1_545  A
C503        H506   1.083       .  S
C504        C505   1.382       .  A
C504        H507   1.082       .  S
C505       C1187   1.501       .  S
N508        C512   1.378       .  A
N508        C509   1.380       .  A
N508       C1512   1.472       .  S
C509        C510   1.379       .  A
C509       C1078   1.495       .  S
C510        C511   1.355       .  A
C510        H513   1.083       .  S
C511        C512   1.380       .  A
C511        H514   1.083       .  S
C512        C963   1.503       .  S
N515        C519   1.375       .  A
N515        C516   1.378       .  A
N515       C1425   1.472       .  S
C516        C517   1.383       .  A
C516        C949   1.497       .  S
C517        C518   1.353       .  A
C517        H520   1.083       .  S
C518        C519   1.376       .  A
C518        H521   1.083       .  S
C519       C1162   1.488       .  S
N522        C526   1.370       .  A
N522        C523   1.371   1_545  A
N522        C669   1.470       .  S
C523        C524   1.380   1_565  A
C523       C1260   1.485       .  S
C524        C525   1.356       .  A
C524        H527   1.083   1_545  S
C525        C526   1.382       .  A
C525        H528   1.082       .  S
C526       C1064   1.499       .  S
N529        C533   1.369       .  A
N529        C530   1.374   1_455  A
N529       C1369   1.464       .  S
C530        C531   1.381       .  A
C530       C1271   1.502       .  S
C531        C532   1.361   1_655  A
C531        H534   1.082       .  S
C532        C533   1.379       .  A
C532        H535   1.083       .  S
C533       C1148   1.487       .  S
N536        C540   1.370       .  A
N536        C537   1.374       .  A
N536       C1551   1.464       .  S
C537        C538   1.381       .  A
C537       C1134   1.499       .  S
C538        C539   1.358       .  A
C538        H541   1.083       .  S
C539        C540   1.379       .  A
C539        H542   1.083       .  S
C540       C1232   1.486       .  S
N543        C547   1.374       .  A
N543        C544   1.369       .  A
N543       C1439   1.463       .  S
C544        C545   1.380       .  A
C544       C1050   1.489       .  S
C545        C546   1.360       .  A
C545        H548   1.083       .  S
C546        C547   1.381       .  A
C546        H549   1.082       .  S
C547       C1218   1.503       .  S
N550        C554   1.378       .  A
N550        C551   1.382       .  A
N550       C1498   1.487       .  S
C551        C552   1.375       .  A
C551        C865   1.493       .  S
C552        C553   1.351       .  A
C552        H555   1.083       .  S
C553        C554   1.382       .  A
C553        H556   1.083       .  S
C554       C1204   1.501       .  S
C557        C558   1.408       .  A
C557        C562   1.411       .  A
C558        C559   1.409       .  A
C558        C563   1.453       .  S
C559        C560   1.420       .  A
C559        C566   1.453       .  S
C560        C561   1.411       .  A
C561        C562   1.414       .  A
C561        C564   1.449       .  S
C562        C565   1.450       .  S
C563        N570   1.158       .  T
C564        N569   1.157       .  T
C565        N567   1.157       .  T
C566        N568   1.157       .  T
C571        C572   1.414       .  A
C571        C576   1.410       .  A
C572        C573   1.411       .  A
C572        C577   1.450       .  S
C573        C574   1.406       .  A
C573        C580   1.449       .  S
C574        C575   1.416       .  A
C575        C576   1.406       .  A
C575        C578   1.453       .  S
C576        C579   1.453       .  S
C577        N584   1.157       .  T
C578        N583   1.157       .  T
C579        N581   1.158       .  T
C580        N582   1.157       .  T
C585        C586   1.420       .  A
C585        C590   1.420       .  A
C586        C587   1.425       .  A
C586        C591   1.449       .  S
C587        C588   1.416       .  A
C587        C594   1.448       .  S
C588        C589   1.419       .  A
C589        C590   1.405       .  A
C589        C592   1.457       .  S
C590        C593   1.453       .  S
C591        N598   1.157       .  T
C592        N597   1.158       .  T
C593        N595   1.157       .  T
C594        N596   1.157       .  T
C599        C600   1.431       .  A
C599        C604   1.423       .  A
C600        C601   1.416       .  A
C600        C605   1.451       .  S
C601        C602   1.403       .  A
C601        C608   1.451       .  S
C602        C603   1.415       .  A
C603        C604   1.411       .  A
C603        C606   1.453       .  S
C604        C607   1.452       .  S
C605        N612   1.158       .  T
C606        N611   1.157   1_554  T
C607        N609   1.158       .  T
C608        N610   1.157       .  T
C613        C614   1.413       .  A
C613        C618   1.407       .  A
C614        C615   1.408       .  A
C614        C619   1.454       .  S
C615        C616   1.420       .  A
C615        C622   1.453       .  S
C616        C617   1.424       .  A
C617        C618   1.418       .  A
C617        C620   1.449       .  S
C618        C621   1.450       .  S
C619        N626   1.157       .  T
C620        N625   1.157       .  T
C621        N623   1.157       .  T
C622        N624   1.158       .  T
C627        C628   1.413       .  A
C627        C632   1.415       .  A
C628        C629   1.402       .  A
C628        C633   1.455       .  S
C629        C630   1.415       .  A
C629        C636   1.455       .  S
C630        C631   1.410       .  A
C631        C632   1.415       .  A
C631        C634   1.450       .  S
C632        C635   1.449       .  S
C633        N640   1.158       .  T
C634        N639   1.157       .  T
C635        N637   1.157       .  T
C636        N638   1.157       .  T
C641        C642   1.427       .  A
C641        C646   1.423       .  A
C642        C643   1.416       .  A
C642        C647   1.443       .  S
C643        C644   1.409       .  A
C643        C650   1.453       .  S
C644        C645   1.412       .  A
C645        C646   1.418       .  A
C645        C648   1.449   1_545  S
C646        C649   1.446   1_545  S
C647        N654   1.156       .  T
C648        N653   1.157       .  T
C649        N651   1.158       .  T
C650        N652   1.157       .  T
C655        C656   1.424   1_565  A
C655        C660   1.421       .  A
C656        C657   1.418       .  A
C656        C661   1.444       .  S
C657        C658   1.411   1_545  A
C657        C664   1.452       .  S
C658        C659   1.408       .  A
C659        C660   1.410       .  A
C659        C662   1.452       .  S
C660        C663   1.444       .  S
C661        N668   1.157       .  T
C662        N667   1.157       .  T
C663        N665   1.156       .  T
C664        N666   1.157       .  T
C669        C670   1.424   1_545  A
C669        C674   1.426       .  A
C670        C671   1.418       .  A
C670        C675   1.445       .  S
C671        C672   1.411   1_565  A
C671        C678   1.451       .  S
C672        C673   1.408       .  A
C673        C674   1.413       .  A
C673        C676   1.453       .  S
C674        C677   1.445       .  S
C675        N682   1.158       .  T
C676        N681   1.157       .  T
C677        N679   1.156       .  T
C678        N680   1.157       .  T
C683        C684   1.426       .  A
C683        C688   1.423       .  A
C684        C685   1.415       .  A
C684        C689   1.443       .  S
C685        C686   1.407       .  A
C685        C692   1.454       .  S
C686        C687   1.411   1_565  A
C687        C688   1.420   1_545  A
C687        C690   1.450       .  S
C688        C691   1.446   1_565  S
C689        N696   1.156       .  T
C690        N695   1.157       .  T
C691        N693   1.158       .  T
C692        N694   1.157       .  T
C697        C698   1.420       .  A
C697        C702   1.412       .  A
C698        C699   1.410       .  A
C698        C703   1.452       .  S
C699        C700   1.409       .  A
C699        C706   1.453       .  S
C700        C701   1.415       .  A
C701        C702   1.420       .  A
C701        C704   1.449       .  S
C702        C705   1.449       .  S
C703        N710   1.157       .  T
C704        N709   1.157       .  T
C705        N707   1.157       .  T
C706        N708   1.157       .  T
C711        C712   1.414       .  A
C711        C716   1.412       .  A
C712        C713   1.417       .  A
C712        C717   1.449       .  S
C713        C714   1.413       .  A
C713        C720   1.450       .  S
C714        C715   1.416       .  A
C715        C716   1.406       .  A
C715        C718   1.454       .  S
C716        C719   1.453       .  S
C717        N724   1.157       .  T
C718        N723   1.157       .  T
C719        N721   1.157       .  T
C720        N722   1.157       .  T
C725        C726   1.407       .  A
C725        C730   1.413       .  A
C726        C727   1.420       .  A
C726        C731   1.451       .  S
C727        C728   1.427       .  A
C727        C734   1.449       .  S
C728        C729   1.424       .  A
C729        C730   1.410       .  A
C729        C732   1.453       .  S
C730        C733   1.455       .  S
C731        N738   1.157       .  T
C732        N737   1.158       .  T
C733        N735   1.157       .  T
C734        N736   1.157       .  T
C739        C740   1.410       .  A
C739        C744   1.406       .  A
C740        C741   1.417       .  A
C740        C745   1.451       .  S
C741        C742   1.417       .  A
C741        C748   1.447       .  S
C742        C743   1.427       .  A
C743        C744   1.410       .  A
C743        C746   1.454       .  S
C744        C747   1.453       .  S
C745        N752   1.157       .  T
C746        N751   1.158       .  T
C747        N749   1.158       .  T
C748        N750   1.157       .  T
C753        C754   1.414       .  A
C753        C758   1.405       .  A
C754        C755   1.409       .  A
C754        C759   1.453       .  S
C755        C756   1.419       .  A
C755        C762   1.452       .  S
C756        C757   1.425       .  A
C757        C758   1.414       .  A
C757        C760   1.451       .  S
C758        C761   1.451       .  S
C759        N766   1.157       .  T
C760        N765   1.157       .  T
C761        N763   1.157       .  T
C762        N764   1.157       .  T
C767        C768   1.411       .  A
C767        C772   1.412       .  A
C768        C769   1.408       .  A
C768        C773   1.455       .  S
C769        C770   1.421       .  A
C769        C776   1.451       .  S
C770        C771   1.416       .  A
C771        C772   1.415       .  A
C771        C774   1.448       .  S
C772        C775   1.452       .  S
C773        N780   1.158       .  T
C774        N779   1.157       .  T
C775        N777   1.157       .  T
C776        N778   1.158       .  T
C781        C782   1.415       .  A
C781        C786   1.407       .  A
C782        C783   1.404       .  A
C782        C787   1.453       .  S
C783        C784   1.409       .  A
C783        C790   1.453       .  S
C784        C785   1.413       .  A
C785        C786   1.411       .  A
C785        C788   1.450       .  S
C786        C789   1.450       .  S
C787        N794   1.157       .  T
C788        N793   1.157       .  T
C789        N791   1.157       .  T
C790        N792   1.157       .  T
C795        C796   1.416       .  A
C795        C800   1.423       .  A
C796        C797   1.419       .  A
C796        C801   1.447       .  S
C797        C798   1.416       .  A
C797        C804   1.451       .  S
C798        C799   1.412       .  A
C799        C800   1.409       .  A
C799        C802   1.454       .  S
C800        C803   1.453       .  S
C801        N808   1.157       .  T
C802        N807   1.158       .  T
C803        N805   1.158       .  T
C804        N806   1.157       .  T
C809        C810   1.406       .  A
C809        C814   1.415       .  A
C810        C811   1.408       .  A
C810        C815   1.452       .  S
C811        C812   1.421       .  A
C811        C818   1.453       .  S
C812        C813   1.410       .  A
C813        C814   1.416       .  A
C813        C816   1.448       .  S
C814        C817   1.450       .  S
C815        N822   1.157       .  T
C816        N821   1.157       .  T
C817        N819   1.157       .  T
C818        N820   1.157       .  T
C823        C824   1.414       .  A
C823        C828   1.417       .  A
C824        C825   1.407       .  A
C824        C829   1.450       .  S
C825        C826   1.416       .  A
C825        C832   1.454       .  S
C826        C827   1.411       .  A
C827        C828   1.420       .  A
C827        C830   1.449       .  S
C828        C831   1.449       .  S
C829        N836   1.156       .  T
C830        N835   1.157       .  T
C831        N833   1.157       .  T
C832        N834   1.157       .  T
C837        C838   1.418       .  A
C837        C842   1.417       .  A
C838        C839   1.418       .  A
C838        C843   1.450       .  S
C839        C840   1.415       .  A
C839        C846   1.449       .  S
C840        C841   1.415       .  A
C841        C842   1.406       .  A
C841        C844   1.452       .  S
C842        C845   1.454       .  S
C843        N850   1.157       .  T
C844        N849   1.157       .  T
C845        N847   1.158       .  T
C846        N848   1.157       .  T
C851        C852   1.416       .  A
C851        C856   1.421       .  A
C852        C853   1.415       .  A
C852        C857   1.448       .  S
C853        C854   1.410       .  A
C853        C860   1.451       .  S
C854        C855   1.406       .  A
C855        C856   1.405       .  A
C855        C858   1.453       .  S
C856        C859   1.453       .  S
C857        N864   1.157       .  T
C858        N863   1.157       .  T
C859        N861   1.158       .  T
C860        N862   1.157       .  T
C865        C866   1.416       .  A
C865        C870   1.412       .  A
C866        C867   1.411       .  A
C866        C871   1.451       .  S
C867        C868   1.413       .  A
C867        C874   1.451       .  S
C868        C869   1.418       .  A
C869        C870   1.416       .  A
C869        C872   1.451       .  S
C870        C873   1.450       .  S
C871        N878   1.157       .  T
C872        N877   1.158       .  T
C873        N875   1.157       .  T
C874        N876   1.157       .  T
C879        C880   1.408       .  A
C879        C884   1.413       .  A
C880        C881   1.407       .  A
C880        C885   1.453       .  S
C881        C882   1.424       .  A
C881        C888   1.452       .  S
C882        C883   1.418       .  A
C883        C884   1.419       .  A
C883        C886   1.446       .  S
C884        C887   1.452       .  S
C885        N892   1.157       .  T
C886        N891   1.156       .  T
C887        N889   1.158       .  T
C888        N890   1.158       .  T
C893        C894   1.411       .  A
C893        C898   1.407       .  A
C894        C895   1.416       .  A
C894        C899   1.451       .  S
C895        C896   1.415       .  A
C895        C902   1.447       .  S
C896        C897   1.427       .  A
C897        C898   1.413       .  A
C897        C900   1.452       .  S
C898        C901   1.453       .  S
C899        N906   1.157       .  T
C900        N905   1.158       .  T
C901        N903   1.158       .  T
C902        N904   1.157       .  T
C907        C908   1.414       .  A
C907        C912   1.412       .  A
C908        C909   1.417       .  A
C908        C913   1.448       .  S
C909        C910   1.410       .  A
C909        C916   1.449       .  S
C910        C911   1.417       .  A
C911        C912   1.408       .  A
C911        C914   1.454       .  S
C912        C915   1.453       .  S
C913        N920   1.157       .  T
C914        N919   1.157       .  T
C915        N917   1.157       .  T
C916        N918   1.157       .  T
C921        C922   1.427       .  A
C921        C926   1.426       .  A
C922        C923   1.418       .  A
C922        C927   1.450       .  S
C923        C924   1.406       .  A
C923        C930   1.450       .  S
C924        C925   1.412       .  A
C925        C926   1.409       .  A
C925        C928   1.455       .  S
C926        C929   1.453       .  S
C927        N934   1.158       .  T
C928        N933   1.157   1_565  T
C929        N931   1.158       .  T
C930        N932   1.157       .  T
C935        C936   1.409       .  A
C935        C940   1.407       .  A
C936        C937   1.408       .  A
C936        C941   1.455       .  S
C937        C938   1.424       .  A
C937        C944   1.454       .  S
C938        C939   1.420       .  A
C939        C940   1.418       .  A
C939        C942   1.447       .  S
C940        C943   1.450       .  S
C941        N948   1.157       .  T
C942        N947   1.157       .  T
C943        N945   1.157       .  T
C944        N946   1.158       .  T
C949        C950   1.422       .  A
C949        C954   1.415       .  A
C950        C951   1.408       .  A
C950        C955   1.453       .  S
C951        C952   1.411       .  A
C951        C958   1.455       .  S
C952        C953   1.413       .  A
C953        C954   1.420       .  A
C953        C956   1.449       .  S
C954        C957   1.447       .  S
C955        N962   1.158       .  T
C956        N961   1.157       .  T
C957        N959   1.157       .  T
C958        N960   1.158       .  T
C963        C964   1.416       .  A
C963        C968   1.425       .  A
C964        C965   1.421       .  A
C964        C969   1.449       .  S
C965        C966   1.414       .  A
C965        C972   1.450       .  S
C966        C967   1.405       .  A
C967        C968   1.409       .  A
C967        C970   1.454       .  S
C968        C971   1.452       .  S
C969        N976   1.157       .  T
C970        N975   1.157       .  T
C971        N973   1.157       .  T
C972        N974   1.158       .  T
C977        C978   1.417       .  A
C977        C982   1.411       .  A
C978        C979   1.404       .  A
C978        C983   1.453       .  S
C979        C980   1.409       .  A
C979        C986   1.453       .  S
C980        C981   1.414       .  A
C981        C982   1.418       .  A
C981        C984   1.448       .  S
C982        C985   1.449       .  S
C983        N990   1.157       .  T
C984        N989   1.157       .  T
C985        N987   1.157       .  T
C986        N988   1.157       .  T
C991        C992   1.417       .  A
C991        C996   1.423       .  A
C992        C993   1.419       .  A
C992        C997   1.447       .  S
C993        C994   1.420       .  A
C993       C1000   1.451       .  S
C994        C995   1.413       .  A
C995        C996   1.410       .  A
C995        C998   1.453       .  S
C996        C999   1.453       .  S
C997       N1004   1.158       .  T
C998       N1003   1.157       .  T
C999       N1001   1.157       .  T
C1000      N1002   1.158       .  T
C1005      C1006   1.412       .  A
C1005      C1010   1.410       .  A
C1006      C1007   1.417       .  A
C1006      C1011   1.451       .  S
C1007      C1008   1.416       .  A
C1007      C1014   1.447       .  S
C1008      C1009   1.426       .  A
C1009      C1010   1.409       .  A
C1009      C1012   1.454       .  S
C1010      C1013   1.454       .  S
C1011      N1018   1.157       .  T
C1012      N1017   1.158       .  T
C1013      N1015   1.158       .  T
C1014      N1016   1.157       .  T
C1019      C1020   1.417       .  A
C1019      C1024   1.407       .  A
C1020      C1021   1.418       .  A
C1020      C1025   1.452       .  S
C1021      C1022   1.417       .  A
C1021      C1028   1.449       .  S
C1022      C1023   1.424       .  A
C1023      C1024   1.406       .  A
C1023      C1026   1.453       .  S
C1024      C1027   1.453       .  S
C1025      N1032   1.158       .  T
C1026      N1031   1.158       .  T
C1027      N1029   1.157       .  T
C1028      N1030   1.157       .  T
C1033      C1034   1.413       .  A
C1033      C1038   1.406       .  A
C1034      C1035   1.418       .  A
C1034      C1039   1.452       .  S
C1035      C1036   1.419       .  A
C1035      C1042   1.448       .  S
C1036      C1037   1.421       .  A
C1037      C1038   1.408       .  A
C1037      C1040   1.449       .  S
C1038      C1041   1.454       .  S
C1039      N1046   1.158       .  T
C1040      N1045   1.157       .  T
C1041      N1043   1.157       .  T
C1042      N1044   1.157       .  T
C1047      C1048   1.412       .  A
C1047      C1052   1.415       .  A
C1048      C1049   1.409       .  A
C1048      C1053   1.452       .  S
C1049      C1050   1.416       .  A
C1049      C1056   1.453       .  S
C1050      C1051   1.411       .  A
C1051      C1052   1.418       .  A
C1051      C1054   1.449       .  S
C1052      C1055   1.449       .  S
C1053      N1060   1.157       .  T
C1054      N1059   1.157       .  T
C1055      N1057   1.157       .  T
C1056      N1058   1.157       .  T
C1061      C1062   1.408       .  A
C1061      C1066   1.406       .  A
C1062      C1063   1.405       .  A
C1062      C1067   1.455       .  S
C1063      C1064   1.424       .  A
C1063      C1070   1.454       .  S
C1064      C1065   1.419       .  A
C1065      C1066   1.414       .  A
C1065      C1068   1.447       .  S
C1066      C1069   1.451       .  S
C1067      N1074   1.158       .  T
C1068      N1073   1.157       .  T
C1069      N1071   1.157       .  T
C1070      N1072   1.158       .  T
C1075      C1076   1.413       .  A
C1075      C1080   1.415       .  A
C1076      C1077   1.413       .  A
C1076      C1081   1.452       .  S
C1077      C1078   1.420       .  A
C1077      C1084   1.454       .  S
C1078      C1079   1.416       .  A
C1079      C1080   1.421       .  A
C1079      C1082   1.450       .  S
C1080      C1083   1.450       .  S
C1081      N1088   1.157       .  T
C1082      N1087   1.157       .  T
C1083      N1085   1.157       .  T
C1084      N1086   1.157       .  T
C1089      C1090   1.414       .  A
C1089      C1094   1.424       .  A
C1090      C1091   1.415       .  A
C1090      C1095   1.448       .  S
C1091      C1092   1.412       .  A
C1091      C1098   1.451       .  S
C1092      C1093   1.408       .  A
C1093      C1094   1.407       .  A
C1093      C1096   1.454       .  S
C1094      C1097   1.454       .  S
C1095      N1102   1.157       .  T
C1096      N1101   1.158       .  T
C1097      N1099   1.158       .  T
C1098      N1100   1.157       .  T
C1103      C1104   1.412       .  A
C1103      C1108   1.413       .  A
C1104      C1105   1.419       .  A
C1104      C1109   1.452       .  S
C1105      C1106   1.426       .  A
C1105      C1112   1.450       .  S
C1106      C1107   1.428       .  A
C1107      C1108   1.415       .  A
C1107      C1110   1.453       .  S
C1108      C1111   1.453       .  S
C1109      N1116   1.157       .  T
C1110      N1115   1.158       .  T
C1111      N1113   1.157       .  T
C1112      N1114   1.158       .  T
C1117      C1118   1.414       .  A
C1117      C1122   1.409       .  A
C1118      C1119   1.415       .  A
C1118      C1123   1.453       .  S
C1119      C1120   1.416       .  A
C1119      C1126   1.446       .  S
C1120      C1121   1.422       .  A
C1121      C1122   1.410       .  A
C1121      C1124   1.451       .  S
C1122      C1125   1.453       .  S
C1123      N1130   1.158       .  T
C1124      N1129   1.157       .  T
C1125      N1127   1.157       .  T
C1126      N1128   1.156       .  T
C1131      C1132   1.419       .  A
C1131      C1136   1.415       .  A
C1132      C1133   1.419       .  A
C1132      C1137   1.451       .  S
C1133      C1134   1.414       .  A
C1133      C1140   1.448       .  S
C1134      C1135   1.420       .  A
C1135      C1136   1.410       .  A
C1135      C1138   1.451       .  S
C1136      C1139   1.454       .  S
C1137      N1144   1.158       .  T
C1138      N1143   1.157       .  T
C1139      N1141   1.158       .  T
C1140      N1142   1.156       .  T
C1145      C1146   1.422       .  A
C1145      C1150   1.424       .  A
C1146      C1147   1.408       .  A
C1146      C1151   1.453       .  S
C1147      C1148   1.412       .  A
C1147      C1154   1.455       .  S
C1148      C1149   1.408       .  A
C1149      C1150   1.418       .  A
C1149      C1152   1.450       .  S
C1150      C1153   1.450       .  S
C1151      N1158   1.158       .  T
C1152      N1157   1.157       .  T
C1153      N1155   1.158       .  T
C1154      N1156   1.157       .  T
C1159      C1160   1.419       .  A
C1159      C1164   1.424       .  A
C1160      C1161   1.407       .  A
C1160      C1165   1.452       .  S
C1161      C1162   1.416       .  A
C1161      C1168   1.455       .  S
C1162      C1163   1.407       .  A
C1163      C1164   1.417       .  A
C1163      C1166   1.450       .  S
C1164      C1167   1.450       .  S
C1165      N1172   1.158       .  T
C1166      N1171   1.157       .  T
C1167      N1169   1.157       .  T
C1168      N1170   1.157       .  T
C1173      C1174   1.412       .  A
C1173      C1178   1.412       .  A
C1174      C1175   1.420       .  A
C1174      C1179   1.449       .  S
C1175      C1176   1.415       .  A
C1175      C1182   1.448       .  S
C1176      C1177   1.419       .  A
C1177      C1178   1.405       .  A
C1177      C1180   1.454       .  S
C1178      C1181   1.455       .  S
C1179      N1186   1.157       .  T
C1180      N1185   1.158       .  T
C1181      N1183   1.157       .  T
C1182      N1184   1.157       .  T
C1187      C1188   1.419       .  A
C1187      C1192   1.424       .  A
C1188      C1189   1.418       .  A
C1188      C1193   1.447       .  S
C1189      C1190   1.410       .  A
C1189      C1196   1.451       .  S
C1190      C1191   1.407       .  A
C1191      C1192   1.405       .  A
C1191      C1194   1.455       .  S
C1192      C1195   1.453       .  S
C1193      N1200   1.157       .  T
C1194      N1199   1.157       .  T
C1195      N1197   1.157       .  T
C1196      N1198   1.158       .  T
C1201      C1202   1.426       .  A
C1201      C1206   1.431       .  A
C1202      C1203   1.423       .  A
C1202      C1207   1.449       .  S
C1203      C1204   1.412       .  A
C1203      C1210   1.448       .  S
C1204      C1205   1.411       .  A
C1205      C1206   1.409       .  A
C1205      C1208   1.456       .  S
C1206      C1209   1.454       .  S
C1207      N1214   1.158       .  T
C1208      N1213   1.157       .  T
C1209      N1211   1.158       .  T
C1210      N1212   1.157       .  T
C1215      C1216   1.411       .  A
C1215      C1220   1.416       .  A
C1216      C1217   1.411       .  A
C1216      C1221   1.453       .  S
C1217      C1218   1.422       .  A
C1217      C1224   1.451       .  S
C1218      C1219   1.416       .  A
C1219      C1220   1.419       .  A
C1219      C1222   1.447       .  S
C1220      C1223   1.451       .  S
C1221      N1228   1.158       .  T
C1222      N1227   1.156       .  T
C1223      N1225   1.157       .  T
C1224      N1226   1.157       .  T
C1229      C1230   1.416       .  A
C1229      C1234   1.415       .  A
C1230      C1231   1.418       .  A
C1230      C1235   1.449       .  S
C1231      C1232   1.410       .  A
C1231      C1238   1.450       .  S
C1232      C1233   1.416       .  A
C1233      C1234   1.409       .  A
C1233      C1236   1.454       .  S
C1234      C1237   1.452       .  S
C1235      N1242   1.157       .  T
C1236      N1241   1.157       .  T
C1237      N1239   1.157       .  T
C1238      N1240   1.157       .  T
C1243      C1244   1.426       .  A
C1243      C1248   1.422       .  A
C1244      C1245   1.422       .  A
C1244      C1249   1.450       .  S
C1245      C1246   1.409       .  A
C1245      C1252   1.450       .  S
C1246      C1247   1.416       .  A
C1247      C1248   1.413       .  A
C1247      C1250   1.454       .  S
C1248      C1251   1.452       .  S
C1249      N1256   1.158       .  T
C1250      N1255   1.157       .  T
C1251      N1253   1.158       .  T
C1252      N1254   1.157       .  T
C1257      C1258   1.427       .  A
C1257      C1262   1.422       .  A
C1258      C1259   1.416       .  A
C1258      C1263   1.450       .  S
C1259      C1260   1.404       .  A
C1259      C1266   1.450       .  S
C1260      C1261   1.414       .  A
C1261      C1262   1.406       .  A
C1261      C1264   1.454       .  S
C1262      C1265   1.453       .  S
C1263      N1270   1.157       .  T
C1264      N1269   1.157   1_565  T
C1265      N1267   1.158       .  T
C1266      N1268   1.157       .  T
C1271      C1272   1.416       .  A
C1271      C1276   1.424       .  A
C1272      C1273   1.418       .  A
C1272      C1277   1.448       .  S
C1273      C1274   1.412       .  A
C1273      C1280   1.451       .  S
C1274      C1275   1.406       .  A
C1275      C1276   1.411       .  A
C1275      C1278   1.452       .  S
C1276      C1279   1.451       .  S
C1277      N1284   1.157       .  T
C1278      N1283   1.157       .  T
C1279      N1281   1.158       .  T
C1280      N1282   1.157       .  T
C1285      C1286   1.420       .  A
C1285      C1290   1.413       .  A
C1286      C1287   1.420       .  A
C1286      C1291   1.451       .  S
C1287      C1288   1.419       .  A
C1287      C1294   1.446       .  S
C1288      C1289   1.419       .  A
C1289      C1290   1.414       .  A
C1289      C1292   1.444   1_554  S
C1290      C1293   1.451   1_554  S
C1291      N1298   1.157       .  T
C1292      N1297   1.156       .  T
C1293      N1295   1.157       .  T
C1294      N1296   1.157       .  T
C1299      C1300   1.426   1_556  A
C1299      C1304   1.429       .  A
C1300      C1301   1.420       .  A
C1300      C1305   1.445       .  S
C1301      C1302   1.413   1_554  A
C1301      C1308   1.450       .  S
C1302      C1303   1.405       .  A
C1303      C1304   1.412       .  A
C1303      C1306   1.453       .  S
C1304      C1307   1.442       .  S
C1305      N1312   1.158       .  T
C1306      N1311   1.157       .  T
C1307      N1309   1.156       .  T
C1308      N1310   1.157       .  T
C1313      C1314   1.423       .  A
C1313      C1318   1.424   1_554  A
C1314      C1315   1.415       .  A
C1314      C1319   1.445       .  S
C1315      C1316   1.411       .  A
C1315      C1322   1.452       .  S
C1316      C1317   1.416   1_554  A
C1317      C1318   1.427       .  A
C1317      C1320   1.449       .  S
C1318      C1321   1.444       .  S
C1319      N1326   1.156       .  T
C1320      N1325   1.157       .  T
C1321      N1323   1.157       .  T
C1322      N1324   1.157       .  T
C1327      C1328   1.425   1_556  A
C1327      C1332   1.428       .  A
C1328      C1329   1.419       .  A
C1328      C1333   1.444       .  S
C1329      C1330   1.412   1_554  A
C1329      C1336   1.450       .  S
C1330      C1331   1.406       .  A
C1331      C1332   1.412       .  A
C1331      C1334   1.454       .  S
C1332      C1335   1.442       .  S
C1333      N1340   1.157       .  T
C1334      N1339   1.157       .  T
C1335      N1337   1.156       .  T
C1336      N1338   1.157       .  T
C1341      C1342   1.406       .  A
C1341      C1346   1.411   1_455  A
C1342      C1343   1.412       .  A
C1342      C1347   1.453       .  S
C1343      C1344   1.439   1_455  A
C1343      C1350   1.450       .  S
C1344      C1345   1.424       .  A
C1345      C1346   1.414       .  A
C1345      C1348   1.446       .  S
C1346      C1349   1.450       .  S
C1347      N1354   1.157       .  T
C1348      N1353   1.158       .  T
C1349      N1351   1.157       .  T
C1350      N1352   1.158       .  T
C1355      C1356   1.418       .  A
C1355      C1360   1.421   1_655  A
C1356      C1357   1.411       .  A
C1356      C1361   1.445       .  S
C1357      C1358   1.414       .  A
C1357      C1364   1.453       .  S
C1358      C1359   1.416   1_655  A
C1359      C1360   1.419       .  A
C1359      C1362   1.451       .  S
C1360      C1363   1.444       .  S
C1361      N1368   1.156       .  T
C1362      N1367   1.157       .  T
C1363      N1365   1.157       .  T
C1364      N1366   1.157       .  T
C1369      C1370   1.418   1_455  A
C1369      C1374   1.422       .  A
C1370      C1371   1.409       .  A
C1370      C1375   1.444       .  S
C1371      C1372   1.411   1_655  A
C1371      C1378   1.452       .  S
C1372      C1373   1.417       .  A
C1373      C1374   1.419       .  A
C1373      C1376   1.452       .  S
C1374      C1377   1.445       .  S
C1375      N1382   1.156       .  T
C1376      N1381   1.157       .  T
C1377      N1379   1.157       .  T
C1378      N1380   1.157       .  T
C1383      C1384   1.412       .  A
C1383      C1388   1.410   1_455  A
C1384      C1385   1.416       .  A
C1384      C1389   1.450       .  S
C1385      C1386   1.423   1_455  A
C1385      C1392   1.445       .  S
C1386      C1387   1.428       .  A
C1387      C1388   1.413       .  A
C1387      C1390   1.444       .  S
C1388      C1391   1.454       .  S
C1389      N1396   1.157       .  T
C1390      N1395   1.156       .  T
C1391      N1393   1.157       .  T
C1392      N1394   1.158       .  T
C1397      C1398   1.411       .  A
C1397      C1402   1.418       .  A
C1398      C1399   1.406       .  A
C1398      C1403   1.446       .  S
C1399      C1400   1.416       .  A
C1399      C1406   1.447       .  S
C1400      C1401   1.420       .  A
C1401      C1402   1.422       .  A
C1401      C1404   1.448       .  S
C1402      C1405   1.445       .  S
C1403      N1410   1.156       .  T
C1404      N1409   1.156       .  T
C1405      N1407   1.157       .  T
C1406      N1408   1.155       .  T
C1411      C1412   1.410       .  A
C1411      C1416   1.406       .  A
C1412      C1413   1.422       .  A
C1412      C1417   1.450       .  S
C1413      C1414   1.425       .  A
C1413      C1420   1.444       .  S
C1414      C1415   1.420       .  A
C1415      C1416   1.412       .  A
C1415      C1418   1.444       .  S
C1416      C1419   1.450       .  S
C1417      N1424   1.157       .  T
C1418      N1423   1.156       .  T
C1419      N1421   1.157       .  T
C1420      N1422   1.157       .  T
C1425      C1426   1.421       .  A
C1425      C1430   1.422       .  A
C1426      C1427   1.419       .  A
C1426      C1431   1.445       .  S
C1427      C1428   1.416       .  A
C1427      C1434   1.448       .  S
C1428      C1429   1.414       .  A
C1429      C1430   1.420       .  A
C1429      C1432   1.450       .  S
C1430      C1433   1.443       .  S
C1431      N1438   1.157       .  T
C1432      N1437   1.157       .  T
C1433      N1435   1.156       .  T
C1434      N1436   1.156       .  T
C1439      C1440   1.417       .  A
C1439      C1444   1.422       .  A
C1440      C1441   1.407       .  A
C1440      C1445   1.445       .  S
C1441      C1442   1.408       .  A
C1441      C1448   1.450       .  S
C1442      C1443   1.415       .  A
C1443      C1444   1.423       .  A
C1443      C1446   1.450       .  S
C1444      C1447   1.445       .  S
C1445      N1452   1.156       .  T
C1446      N1451   1.157       .  T
C1447      N1449   1.157       .  T
C1448      N1450   1.157       .  T
C1453      C1454   1.409       .  A
C1453      C1458   1.414       .  A
C1454      C1455   1.404       .  A
C1454      C1459   1.446       .  S
C1455      C1456   1.414       .  A
C1455      C1462   1.445       .  S
C1456      C1457   1.425       .  A
C1457      C1458   1.423       .  A
C1457      C1460   1.446       .  S
C1458      C1461   1.450       .  S
C1459      N1466   1.155       .  T
C1460      N1465   1.158       .  T
C1461      N1463   1.157       .  T
C1462      N1464   1.156       .  T
C1467      C1468   1.405       .  A
C1467      C1472   1.409       .  A
C1468      C1469   1.413       .  A
C1468      C1473   1.448       .  S
C1469      C1470   1.426       .  A
C1469      C1476   1.444       .  S
C1470      C1471   1.429       .  A
C1471      C1472   1.425       .  A
C1471      C1474   1.444       .  S
C1472      C1475   1.449       .  S
C1473      N1480   1.156       .  T
C1474      N1479   1.157       .  T
C1475      N1477   1.157       .  T
C1476      N1478   1.156       .  T
C1481      C1482   1.420       .  A
C1481      C1486   1.415       .  A
C1482      C1483   1.429       .  A
C1482      C1487   1.448       .  S
C1483      C1484   1.418       .  A
C1483      C1490   1.446       .  S
C1484      C1485   1.417       .  A
C1485      C1486   1.409       .  A
C1485      C1488   1.446       .  S
C1486      C1489   1.453       .  S
C1487      N1494   1.157       .  T
C1488      N1493   1.156       .  T
C1489      N1491   1.157       .  T
C1490      N1492   1.157       .  T
C1495      C1496   1.409       .  A
C1495      C1500   1.408       .  A
C1496      C1497   1.422       .  A
C1496      C1501   1.456       .  S
C1497      C1498   1.437       .  A
C1497      C1504   1.442       .  S
C1498      C1499   1.421       .  A
C1499      C1500   1.412       .  A
C1499      C1502   1.445       .  S
C1500      C1503   1.449       .  S
C1501      N1508   1.157       .  T
C1502      N1507   1.158       .  T
C1503      N1505   1.157       .  T
C1504      N1506   1.158       .  T
C1509      C1510   1.411       .  A
C1509      C1514   1.413       .  A
C1510      C1511   1.415       .  A
C1510      C1515   1.453       .  S
C1511      C1512   1.422       .  A
C1511      C1518   1.444       .  S
C1512      C1513   1.424       .  A
C1513      C1514   1.423       .  A
C1513      C1516   1.443       .  S
C1514      C1517   1.451       .  S
C1515      N1522   1.157       .  T
C1516      N1521   1.157       .  T
C1517      N1519   1.157       .  T
C1518      N1520   1.156       .  T
C1523      C1524   1.424       .  A
C1523      C1528   1.431       .  A
C1524      C1525   1.412       .  A
C1524      C1529   1.445       .  S
C1525      C1526   1.409       .  A
C1525      C1532   1.451       .  S
C1526      C1527   1.410       .  A
C1527      C1528   1.418       .  A
C1527      C1530   1.453       .  S
C1528      C1531   1.442       .  S
C1529      N1536   1.158       .  T
C1530      N1535   1.157       .  T
C1531      N1533   1.157       .  T
C1532      N1534   1.157       .  T
C1537      C1538   1.406       .  A
C1537      C1542   1.411       .  A
C1538      C1539   1.408       .  A
C1538      C1543   1.450       .  S
C1539      C1540   1.422       .  A
C1539      C1546   1.443       .  S
C1540      C1541   1.426       .  A
C1541      C1542   1.422       .  A
C1541      C1544   1.445       .  S
C1542      C1545   1.449       .  S
C1543      N1550   1.157       .  T
C1544      N1549   1.157       .  T
C1545      N1547   1.157       .  T
C1546      N1548   1.156       .  T
C1551      C1552   1.421       .  A
C1551      C1556   1.414       .  A
C1552      C1553   1.425       .  A
C1552      C1557   1.444       .  S
C1553      C1554   1.417       .  A
C1553      C1560   1.450       .  S
C1554      C1555   1.413       .  A
C1555      C1556   1.409       .  A
C1555      C1558   1.448       .  S
C1556      C1559   1.445       .  S
C1557      N1564   1.157       .  T
C1558      N1563   1.156       .  T
C1559      N1561   1.156       .  T
C1560      N1562   1.157       .  T
