geometry optimzed in LAMMPS
_audit_creation_date              2020-11-30 
_audit_creation_method            'lammps2cif' 
_symmetry_space_group_name_H-M    'P1' 
_symmetry_Int_Tables_number       1 
_symmetry_cell_setting            triclinic 
loop_ 
_symmetry_equiv_pos_as_xyz 
  x,y,z 
_cell_length_a                    40.78224999 
_cell_length_b                    40.78401365616685 
_cell_length_c                    40.84407376544477 
_cell_angle_alpha                 90.30441828003588 
_cell_angle_beta                  90.00087556725971 
_cell_angle_gamma                 90.19072382514427 
loop_ 
_atom_site_label 
_atom_site_type_symbol 
_atom_site_fract_x 
_atom_site_fract_y 
_atom_site_fract_z 
_atom_site_charge 
N1          N  0.50735117  0.00137305  0.44785251    -0.35600
N2          N  0.50994631  0.05461544  0.49488554    -0.56100
N3          N  0.50678583  0.00702869  0.54738313    -0.35600
N4          N  0.50633371  0.95382615  0.50020675    -0.56100
C5          C  0.51538206  0.02682908  0.42835765     0.28000
C6          C  0.51469782  0.97358343  0.43129946     0.28000
C7          C  0.51530728  0.03449069  0.56408897     0.28000
C8          C  0.51275646  0.98114908  0.56708371     0.28000
C9          C  0.50321856  0.07172852  0.46748830     0.36600
C10         C  0.50381827  0.07490837  0.52037766     0.36600
C11         C  0.49957005  0.93388078  0.47454538     0.36600
C12         C  0.49863916  0.93691688  0.52751381     0.36600
C13         C  0.52811275  0.01518123  0.39908506    -0.20900
C14         C  0.52781500  0.98148446  0.40099132    -0.20900
C15         C  0.52689677  0.02596639  0.59481370    -0.20900
C16         C  0.52523803  0.99226843  0.59671934    -0.20900
C17         C  0.49308694  0.10314875  0.47556135    -0.21900
C18         C  0.49344146  0.10516001  0.50914793    -0.21900
C19         C  0.48764868  0.90405935  0.48557420    -0.21900
C20         C  0.48709863  0.90597027  0.51919868    -0.21900
C21         C  0.50860972  0.06003770  0.43534599    -0.17300
C22         C  0.50653383  0.94152231  0.44154071    -0.17300
C23         C  0.50476806  0.94809745  0.55976848    -0.17300
C24         C  0.50960181  0.06700392  0.55349625    -0.17300
H25         H  0.53609091  0.02946751  0.37827864     0.15600
H26         H  0.53543725  0.96469651  0.38186308     0.15600
H27         H  0.53490639  0.04238547  0.61414799     0.15600
H28         H  0.53182479  0.97767176  0.61775808     0.15600
H29         H  0.48651447  0.12267390  0.45898581     0.13900
H30         H  0.48713354  0.12652968  0.52362182     0.13900
H31         H  0.48062541  0.88297031  0.47095445     0.13900
H32         H  0.47960946  0.88662881  0.53565742     0.13900
H33         H  0.49340382  0.00285771  0.46911763     0.27200
H34         H  0.49358190  0.00627922  0.52562498     0.27200
N35         N  0.94285955  0.50157360  0.50276812    -0.35600
N36         N  0.99221336  0.55187012  0.50787665    -0.56100
N37         N  0.04232014  0.50140952  0.50875019    -0.35600
N38         N  0.99309009  0.45109980  0.50566239    -0.56100
C39         C  0.92403842  0.52792127  0.51000617     0.28000
C40         C  0.92464998  0.47451527  0.50888373     0.28000
C41         C  0.05987035  0.52806723  0.51787022     0.28000
C42         C  0.06017012  0.47473791  0.51684884     0.28000
C43         C  0.96608416  0.57093374  0.50113802     0.36600
C44         C  0.01907337  0.57072840  0.50347803     0.36600
C45         C  0.96709468  0.43296219  0.49608811     0.36600
C46         C  0.01991946  0.43275059  0.49962535     0.36600
C47         C  0.89347374  0.51752563  0.52063196    -0.20900
C48         C  0.89389562  0.48375587  0.52005350    -0.20900
C49         C  0.08916925  0.51829920  0.53197231    -0.20900
C50         C  0.08933885  0.48453399  0.53135181    -0.20900
C51         C  0.97631793  0.60220073  0.49272480    -0.21900
C52         C  0.00998821  0.60204193  0.49407651    -0.21900
C53         C  0.97741063  0.40290084  0.48393426    -0.21900
C54         C  0.01100439  0.40273406  0.48628841    -0.21900
C55         C  0.93315297  0.56098165  0.50499297    -0.17300
C56         C  0.93419833  0.44197452  0.50152443    -0.17300
C57         C  0.05203965  0.44212829  0.50828432    -0.17300
C58         C  0.05137722  0.56079525  0.51077744    -0.17300
H59         H  0.87287386  0.53269669  0.52762055     0.15600
H60         H  0.87360541  0.46782781  0.52637145     0.15600
H61         H  0.10871696  0.53390404  0.54103314     0.15600
H62         H  0.10903200  0.46898515  0.53979031     0.15600
H63         H  0.96111537  0.62302707  0.48672912     0.13900
H64         H  0.02590396  0.62278858  0.48942050     0.13900
H65         H  0.96225588  0.38292703  0.47502763     0.13900
H66         H  0.02697788  0.38270503  0.47942441     0.13900
H67         H  0.96491986  0.50197745  0.49052161     0.27200
H68         H  0.02193833  0.50159314  0.49384499     0.27200
N69         N  0.49506831  0.49735946  0.94993118    -0.35600
N70         N  0.44608463  0.49714687  0.00172883    -0.56100
N71         N  0.49815494  0.49475736  0.04953711    -0.35600
N72         N  0.54704826  0.49252693  0.99762205    -0.56100
C73         C  0.46734559  0.49253465  0.93243599     0.28000
C74         C  0.52059642  0.49033797  0.92999048     0.28000
C75         C  0.47185294  0.48823105  0.06864795     0.28000
C76         C  0.52523122  0.48647049  0.06662916     0.28000
C77         C  0.42689298  0.50528021  0.97613671     0.36600
C78         C  0.42861220  0.50384131  0.02900479     0.36600
C79         C  0.56540925  0.49800192  0.97062795     0.36600
C80         C  0.56693243  0.49760633  0.02361978     0.36600
C81         C  0.47527319  0.48242210  0.90097363    -0.20900
C82         C  0.50886496  0.48137349  0.89931201    -0.20900
C83         C  0.48235003  0.47545098  0.09823772    -0.20900
C84         C  0.51610261  0.47447048  0.09701025    -0.20900
C85         C  0.39693369  0.51687641  0.98708451    -0.21900
C86         C  0.39807193  0.51612950  0.02067551    -0.21900
C87         C  0.59730919  0.50577675  0.97952292    -0.21900
C88         C  0.59816763  0.50594443  0.01309432    -0.21900
C89         C  0.43531432  0.50016926  0.94305762    -0.17300
C90         C  0.55409005  0.49444628  0.93807435    -0.17300
C91         C  0.55789823  0.49248165  0.05662262    -0.17300
C92         C  0.43902368  0.49651360  0.06112834    -0.17300
H93         H  0.45861279  0.47731399  0.88094185     0.15600
H94         H  0.52287644  0.47534534  0.87764136     0.15600
H95         H  0.46730756  0.46846708  0.11890606     0.15600
H96         H  0.53214285  0.46653874  0.11651873     0.15600
H97         H  0.37635493  0.52476259  0.97239630     0.13900
H98         H  0.37848539  0.52332867  0.03705397     0.13900
H99         H  0.61789250  0.51076914  0.96358282     0.13900
H100        H  0.61953248  0.51106019  0.02800603     0.13900
H101        H  0.49652380  0.50898696  0.97254974     0.27200
H102        H  0.49797363  0.50837508  0.02812384     0.27200
N103        N  0.00531545  0.50586914  0.05066009    -0.35600
N104        N  0.00240277  0.55347612  0.99849886    -0.56100
N105        N  0.00384634  0.50062821  0.95075627    -0.35600
N106        N  0.00497186  0.45314558  0.00256005    -0.56100
C107        C  0.99756253  0.53328101  0.06773873     0.28000
C108        C  0.99802538  0.47986582  0.06980389     0.28000
C109        C  0.99453572  0.52604612  0.93189185     0.28000
C110        C  0.99625030  0.47282798  0.93422331     0.28000
C111        C  0.00854802  0.57389104  0.02395028     0.36600
C112        C  0.00739084  0.57101393  0.97095870     0.36600
C113        C  0.01137104  0.43582580  0.02981700     0.36600
C114        C  0.01189798  0.43325543  0.97699704     0.36600
C115        C  0.98555094  0.52458789  0.09827824    -0.20900
C116        C  0.98589414  0.49084869  0.09959238    -0.20900
C117        C  0.98080059  0.51431384  0.90304380    -0.20900
C118        C  0.98184357  0.48061567  0.90454658    -0.20900
C119        C  0.01746772  0.60460484  0.01250923    -0.21900
C120        C  0.01662396  0.60280059  0.97888213    -0.21900
C121        C  0.02240654  0.40473384  0.02161459    -0.21900
C122        C  0.02296769  0.40317906  0.98802868    -0.21900
C123        C  0.00310544  0.56587890  0.05719036    -0.17300
C124        C  0.00412058  0.44665347  0.06180015    -0.17300
C125        C  0.00476359  0.44087394  0.94414468    -0.17300
C126        C  0.00078128  0.55938848  0.93897692    -0.17300
H127        H  0.97771559  0.54087173  0.11774869     0.15600
H128        H  0.97843730  0.47610008  0.12026617     0.15600
H129        H  0.97154991  0.52856470  0.88278387     0.15600
H130        H  0.97359529  0.46376784  0.88568578     0.15600
H131        H  0.02320629  0.62624137  0.02688470     0.13900
H132        H  0.02158342  0.62273974  0.96219524     0.13900
H133        H  0.02871462  0.38504417  0.03810278     0.13900
H134        H  0.02967701  0.38201013  0.97344124     0.13900
H135        H  0.01830404  0.50506738  0.02877586     0.27200
H136        H  0.01851756  0.50223141  0.97154598     0.27200
N137        N  0.54960061  0.99885659  0.98872001    -0.35600
N138        N  0.50012565  0.04986623  0.98991548    -0.56100
N139        N  0.44911485  0.00015371  0.99123740    -0.35600
N140        N  0.49867162  0.94925334  0.99248896    -0.56100
C141        C  0.56846300  0.02551895  0.99502761     0.28000
C142        C  0.56756614  0.97201249  0.99603758     0.28000
C143        C  0.43144466  0.02725959  0.99831675     0.28000
C144        C  0.43078373  0.97391623  0.99994189     0.28000
C145        C  0.52683797  0.06861965  0.98408960     0.36600
C146        C  0.47375696  0.06916179  0.98490804     0.36600
C147        C  0.52462015  0.92995758  0.98554163     0.36600
C148        C  0.47165649  0.93065982  0.98754609     0.36600
C149        C  0.59894812  0.01549806  0.00612697    -0.20900
C150        C  0.59833523  0.98172926  0.00689643    -0.20900
C151        C  0.40135139  0.01812733  0.01130082    -0.20900
C152        C  0.40095225  0.98442107  0.01235239    -0.20900
C153        C  0.51743337  0.10004852  0.97552267    -0.21900
C154        C  0.48375530  0.10035881  0.97591367    -0.21900
C155        C  0.51403784  0.89898141  0.97609054    -0.21900
C156        C  0.48041998  0.89938674  0.97751798    -0.21900
C157        C  0.55953095  0.05850751  0.98914939    -0.17300
C158        C  0.55765599  0.93904543  0.99079501    -0.17300
C159        C  0.43939679  0.94077560  0.99469929    -0.17300
C160        C  0.44102216  0.05990429  0.99161358    -0.17300
H161        H  0.61960691  0.03090252  0.01270872     0.15600
H162        H  0.61844911  0.96609729  0.01410317     0.15600
H163        H  0.38158452  0.03407825  0.01892962     0.15600
H164        H  0.38081140  0.96935417  0.02084712     0.15600
H165        H  0.53319151  0.12074622  0.97018390     0.13900
H166        H  0.46840575  0.12136749  0.97101191     0.13900
H167        H  0.52899948  0.87806656  0.96959510     0.13900
H168        H  0.46429214  0.87889459  0.97226463     0.13900
H169        H  0.52727543  0.99886539  0.97647136     0.27200
H170        H  0.47071322  0.99949373  0.97776100     0.27200
O171        O  0.81309170  0.71670088  0.78321853    -0.77500
C172        C  0.73180101  0.76335975  0.83803512     0.83600
O173        O  0.71310182  0.67426094  0.73627642    -0.78600
O174        O  0.67317286  0.78684513  0.74993060    -0.80100
O175        O  0.78553057  0.81614813  0.72355906    -0.79900
O176        O  0.82898271  0.74828632  0.74167124    -0.78500
Zn177      Zn  0.76306625  0.72045271  0.78485742     1.55700
O178        O  0.74316367  0.83166492  0.75428578    -0.79900
Cd179      Cd  0.78448046  0.76531121  0.72327682     1.59700
Cd180      Cd  0.71631115  0.72244890  0.72113488     1.59600
O181        O  0.78027820  0.75000831  0.67488457    -0.79900
O182        O  0.74664179  0.74855026  0.74977512    -1.90400
Cd183      Cd  0.72136695  0.78700919  0.76723513     1.59900
O184        O  0.73295156  0.72247896  0.67365281    -0.79800
O185        O  0.71955470  0.78360164  0.81775654    -0.78500
C186        C  0.72489896  0.65959748  0.76106086     0.84100
C187        C  0.83556609  0.72899046  0.76524099     0.83700
O188        O  0.74915299  0.73896331  0.82899260    -0.77400
C189        C  0.76811892  0.83858660  0.73668518     0.84500
O190        O  0.74379453  0.67444858  0.78120243    -0.77500
C191        C  0.75848397  0.73353177  0.65949441     0.84600
C192        C  0.65632473  0.76683738  0.73255322     0.85000
O193        O  0.66911267  0.74093029  0.72069889    -0.80000
O194        O  0.16637953  0.75781023  0.74991371    -0.77500
C195        C  0.22676914  0.84553078  0.74093016     0.83600
O196        O  0.25633109  0.72801643  0.67699035    -0.78600
O197        O  0.32048759  0.79394655  0.75211714    -0.80100
O198        O  0.24896158  0.74584850  0.83503794    -0.79900
O199        O  0.18069143  0.72664887  0.79215958    -0.78500
Zn200      Zn  0.20918293  0.77289313  0.72893790     1.55700
O201        O  0.27643902  0.79154839  0.82227603    -0.79900
Cd202      Cd  0.23182218  0.72810067  0.79051674     1.59700
Cd203      Cd  0.27551951  0.72935909  0.72391196     1.59600
O204        O  0.25020610  0.68074770  0.78596703    -0.79900
O205        O  0.24693779  0.75649890  0.75344182    -1.90400
Cd206      Cd  0.27314259  0.79441757  0.77135786     1.59900
O207        O  0.28004072  0.68131762  0.74041342    -0.79800
O208        O  0.25175536  0.83902858  0.75855379    -0.78500
C209        C  0.23002500  0.73930690  0.66458100     0.84100
C210        C  0.15872540  0.73985971  0.77428321     0.83700
O211        O  0.20926151  0.82273483  0.72832131    -0.77400
C212        C  0.26594000  0.77086237  0.84320803     0.84500
O213        O  0.21009894  0.75637471  0.68168175    -0.77500
C214        C  0.26877834  0.66627989  0.76533816     0.84600
C215        C  0.33580262  0.77458276  0.73281999     0.85000
O216        O  0.32215830  0.74909347  0.72075219    -0.80000
O217        O  0.75388125  0.17020817  0.74848741    -0.77500
C218        C  0.75157270  0.22788911  0.83785394     0.83600
O219        O  0.68295870  0.25799239  0.72096939    -0.78600
O220        O  0.75838141  0.32284306  0.78760108    -0.80100
O221        O  0.84253598  0.25027672  0.73750746    -0.79900
O222        O  0.79582950  0.18349559  0.71601463    -0.78500
Zn223      Zn  0.73578801  0.21269570  0.76586893     1.55700
O224        O  0.82889507  0.28064775  0.78112949    -0.79900
Cd225      Cd  0.79683848  0.23457120  0.71937896     1.59700
Cd226      Cd  0.72961807  0.27860713  0.72289231     1.59600
O227        O  0.79074926  0.25275765  0.67195411    -0.79900
O228        O  0.76013284  0.25004377  0.74867044    -1.90400
Cd229      Cd  0.77851293  0.27597182  0.78632673     1.59900
O230        O  0.74491068  0.28215967  0.67480093    -0.79800
O231        O  0.76871337  0.25324467  0.83116956    -0.78500
C232        C  0.67096997  0.23219175  0.73388147     0.84100
C233        C  0.77697375  0.16223926  0.72911383     0.83700
O234        O  0.73778078  0.21119943  0.81522257    -0.77400
C235        C  0.85032620  0.26892600  0.76157271     0.84500
O236        O  0.68834625  0.21378112  0.75199185    -0.77500
C237        C  0.76901632  0.27076880  0.65853137     0.84600
C238        C  0.73909983  0.33865333  0.76882387     0.85000
O239        O  0.72679232  0.32575175  0.74302404    -0.80000
O240        O  0.25996655  0.25231185  0.66718564    -0.77500
C241        C  0.34717854  0.23595109  0.72911838     0.83600
O242        O  0.22871566  0.17794425  0.75722868    -0.78600
O243        O  0.29480058  0.25297649  0.82301043    -0.80100
O244        O  0.25464539  0.33412848  0.74599302    -0.79900
O245        O  0.22687422  0.29212851  0.68406694    -0.78500
Zn246      Zn  0.27427552  0.22895182  0.70930638     1.55700
O247        O  0.29872317  0.32011883  0.77460718    -0.79900
Cd248      Cd  0.23179840  0.29078805  0.73399620     1.59700
Cd249      Cd  0.23163808  0.22458356  0.77670552     1.59600
O250        O  0.18498763  0.28956856  0.75390067    -0.79900
O251        O  0.25921274  0.25290389  0.74803954    -1.90400
Cd252      Cd  0.29725692  0.26911852  0.77479013     1.59900
O253        O  0.18420795  0.24184039  0.78007251    -0.79800
O254        O  0.34087212  0.25214463  0.75512840    -0.78500
C255        C  0.23740379  0.16590555  0.72971299     0.84100
C256        C  0.24070746  0.27619589  0.66109710     0.83700
O257        O  0.32448820  0.22600213  0.70980509    -0.77400
C258        C  0.28044096  0.34192774  0.76176695     0.84500
O259        O  0.25416425  0.18271021  0.70925145    -0.77500
C260        C  0.17003691  0.26794999  0.77074911     0.84600
C261        C  0.27444764  0.23516327  0.83868129     0.85000
O262        O  0.24950657  0.22297340  0.82421264    -0.80000
O263        O  0.75204900  0.75021232  0.16627851    -0.77500
C264        C  0.83736810  0.73714298  0.22946364     0.83600
O265        O  0.72011513  0.67670176  0.25579696    -0.78600
O266        O  0.78328877  0.75531423  0.32124068    -0.80100
O267        O  0.74460255  0.83634516  0.24578871    -0.79900
O268        O  0.72058436  0.79210048  0.18118865    -0.78500
Zn269      Zn  0.76551404  0.72874647  0.20904838     1.55700
O270        O  0.78837457  0.82123829  0.27428956    -0.79900
Cd271      Cd  0.72344972  0.79185417  0.23172977     1.59700
Cd272      Cd  0.72171020  0.72406930  0.27531909     1.59600
O273        O  0.67617117  0.78916984  0.24991065    -0.79900
O274        O  0.74941912  0.75330092  0.24689086    -1.90400
Cd275      Cd  0.78673755  0.77062989  0.27345337     1.59900
O276        O  0.67376240  0.74176053  0.27622989    -0.79800
O277        O  0.83079263  0.75425770  0.25475602    -0.78500
C278        C  0.73078174  0.66473569  0.22889053     0.84100
C279        C  0.73389498  0.77452427  0.15901012     0.83700
O280        O  0.81514230  0.72617241  0.21032614    -0.77400
C281        C  0.77016475  0.84350706  0.26238603     0.84500
O282        O  0.74736473  0.68230635  0.20907621    -0.77500
C283        C  0.65990317  0.76773614  0.26579009     0.84600
C284        C  0.76484889  0.73579452  0.33710728     0.85000
O285        O  0.74033566  0.72170031  0.32336374    -0.80000
O286        O  0.27744812  0.79033124  0.19027838    -0.77500
C287        C  0.23197266  0.84377627  0.27036058     0.83600
O288        O  0.32093857  0.74092709  0.28903110    -0.78600
O289        O  0.20586762  0.75380325  0.32685304    -0.80100
O290        O  0.17958541  0.72950161  0.21573377    -0.79900
O291        O  0.24467281  0.75023509  0.17363959    -0.78500
Zn292      Zn  0.27528162  0.79041708  0.24010083     1.55700
O293        O  0.16442883  0.76316630  0.25581466    -0.79900
Cd294      Cd  0.23003568  0.72960392  0.21744715     1.59700
Cd295      Cd  0.27239933  0.72468879  0.28547425     1.59600
O296        O  0.24668709  0.68201578  0.21864005    -0.79900
O297        O  0.24717860  0.75484463  0.25580125    -1.89200
Cd298      Cd  0.20843504  0.77280933  0.27985715     1.59900
O299        O  0.27426224  0.67728638  0.26561346    -0.79800
O300        O  0.21189992  0.82306477  0.28232908    -0.78500
C301        C  0.33619050  0.76516295  0.27635112     0.84100
C302        C  0.26373618  0.77410561  0.16719924     0.83700
O303        O  0.25728643  0.83493199  0.25424404    -0.77400
C304        C  0.15743514  0.74514606  0.23118709     0.84500
O305        O  0.32147460  0.78540974  0.25774666    -0.77500
C306        C  0.26368708  0.66525271  0.23865531     0.84600
C307        C  0.22430343  0.73516735  0.34376834     0.85000
O308        O  0.25076239  0.72295632  0.33217779    -0.80000
O309        O  0.72686475  0.20972508  0.17807487    -0.77500
C310        C  0.76698610  0.16359716  0.26258042     0.83600
O311        O  0.67218829  0.25910420  0.27303933    -0.78600
O312        O  0.78258359  0.25428504  0.31790363    -0.80100
O313        O  0.81691643  0.27977626  0.20750265    -0.79900
O314        O  0.75247094  0.25502155  0.16129729    -0.78500
Zn315      Zn  0.72431347  0.21324976  0.22723973     1.55700
O316        O  0.83078557  0.25226171  0.25253357    -0.79900
Cd317      Cd  0.76581502  0.27733054  0.20565551     1.59700
Cd318      Cd  0.71903931  0.27894635  0.27129212     1.59600
O319        O  0.74763178  0.32521523  0.20793917    -0.79900
O320        O  0.74864417  0.25114902  0.24340507    -1.90400
Cd321      Cd  0.78630634  0.23609313  0.27075713     1.59900
O322        O  0.71639408  0.32630043  0.25284745    -0.79800
O323        O  0.78698385  0.18530417  0.27313364    -0.78500
C324        C  0.65942693  0.23422429  0.25891689     0.84100
C325        C  0.73786142  0.22788301  0.15528062     0.83700
O326        O  0.74186278  0.17097769  0.24569626    -0.77400
C327        C  0.83843420  0.26904017  0.22744702     0.84500
O328        O  0.67675572  0.21617298  0.24023719    -0.77500
C329        C  0.72893808  0.34046226  0.22799031     0.84600
C330        C  0.76138635  0.27111887  0.33350089     0.85000
O331        O  0.73573472  0.28175451  0.31928120    -0.80000
N332        N  0.99962147  0.00145803  0.54885994    -0.35600
N333        N  0.94874387  0.00685343  0.50027738    -0.56100
N334        N  0.99794276  0.00780952  0.44948478    -0.35600
N335        N  0.04913857  0.00097552  0.49822580    -0.56100
C336        C  0.97289928  0.99372727  0.56682483     0.28000
C337        C  0.02618721  0.99155390  0.56583896     0.28000
C338        C  0.97051472  0.00181541  0.43178737     0.28000
C339        C  0.02383811  0.99905395  0.43074973     0.28000
C340        C  0.93080081  0.01239928  0.52745825     0.36600
C341        C  0.92980349  0.01538471  0.47466642     0.36600
C342        C  0.06839714  0.00577697  0.52473964     0.36600
C343        C  0.06741998  0.00891570  0.47184936     0.36600
C344        C  0.98258192  0.97854105  0.59554036    -0.20900
C345        C  0.01633284  0.97731177  0.59497896    -0.20900
C346        C  0.97903970  0.98922361  0.40138204    -0.20900
C347        C  0.01275244  0.98735884  0.40076599    -0.20900
C348        C  0.90030698  0.02476546  0.51913413    -0.21900
C349        C  0.89962422  0.02651548  0.48554071    -0.21900
C350        C  0.09917731  0.01657815  0.51522813    -0.21900
C351        C  0.09853071  0.01867826  0.48163270    -0.21900
C352        C  0.94039554  0.00279921  0.55914954    -0.17300
C353        C  0.05895985  0.99843401  0.55713296    -0.17300
C354        C  0.05712489  0.00433597  0.43908302    -0.17300
C355        C  0.93824315  0.00951212  0.44172863    -0.17300
H356        H  0.96700408  0.97006770  0.61523346     0.15600
H357        H  0.03188895  0.96773028  0.61412555     0.15600
H358        H  0.96269884  0.98250875  0.38155263     0.15600
H359        H  0.02746824  0.97903203  0.38031808     0.15600
H360        H  0.88030735  0.03082708  0.53547627     0.13900
H361        H  0.87902437  0.03421060  0.47077978     0.13900
H362        H  0.11999252  0.02196657  0.53081390     0.13900
H363        H  0.11880120  0.02592307  0.46614438     0.13900
H364        H  0.00001016  0.01673382  0.52855670     0.27200
H365        H  0.99913913  0.02091205  0.47138062     0.27200
C366        C  0.19511685  0.03395496  0.30400567     0.81300
N367        N  0.16970144  0.03392979  0.32558108    -0.77100
C368        C  0.15610139  0.00527536  0.33568718     0.83700
N369        N  0.16762767  0.97667437  0.32319095    -0.77000
C370        C  0.19351936  0.97626761  0.30233619     0.83800
N371        N  0.20745629  0.00502853  0.29279010    -0.78700
O372        O  0.24940591  0.25948017  0.16934338    -0.77500
C373        C  0.16094609  0.26887877  0.22951135     0.83600
O374        O  0.27896059  0.33024511  0.26193348    -0.78600
O375        O  0.21061523  0.25599262  0.32404541    -0.80100
O376        O  0.25761681  0.17298247  0.25118054    -0.79900
O377        O  0.27842119  0.21604346  0.18456512    -0.78500
Zn378      Zn  0.23377135  0.27999826  0.21268333     1.55700
O379        O  0.21194535  0.18717359  0.27782735    -0.79900
Cd380      Cd  0.27658526  0.21739289  0.23513611     1.59700
Cd381      Cd  0.27649654  0.28307624  0.28066554     1.59600
O382        O  0.32423009  0.22114223  0.25213832    -0.79900
O383        O  0.24921271  0.25506559  0.25061752    -1.90400
Cd384      Cd  0.21088121  0.23793312  0.27621221     1.59900
O385        O  0.32416787  0.26520151  0.28472120    -0.79800
O386        O  0.16711276  0.25148544  0.25457903    -0.78500
C387        C  0.26766744  0.34329703  0.23593434     0.84100
C388        C  0.26653610  0.23423388  0.16225496     0.83700
O389        O  0.18391806  0.28107059  0.21210764    -0.77400
C390        C  0.23184647  0.16552885  0.26721081     0.84500
O391        O  0.25036514  0.32704296  0.21541935    -0.77500
C392        C  0.33880797  0.24078915  0.27169631     0.84600
C393        C  0.23041492  0.27375162  0.34067654     0.85000
O394        O  0.25652744  0.28508956  0.32766119    -0.80000
C395        C  0.02847912  0.30519856  0.19203810     0.81300
N396        N  0.99968190  0.29436574  0.20509904    -0.77100
C397        C  0.97089193  0.30833337  0.19568902     0.83700
N398        N  0.97113359  0.33342211  0.17394647    -0.77000
C399        C  0.99967826  0.34411927  0.16056472     0.83800
N400        N  0.02802257  0.32947044  0.16951430    -0.78700
C401        C  0.30704365  0.19925846  0.97247725     0.81300
N402        N  0.33042183  0.17576788  0.97175139    -0.77100
C403        C  0.34070224  0.16118318  0.99962529     0.83700
N404        N  0.32772587  0.17103629  0.02867424    -0.77000
C405        C  0.30485152  0.19522565  0.03005341     0.83800
N406        N  0.29426239  0.20921509  0.00168793    -0.78700
C407        C  0.52758317  0.19404769  0.29620109     0.81300
N408        N  0.52841622  0.16853580  0.31722625    -0.77100
C409        C  0.50101129  0.15842481  0.33292556     0.83700
N410        N  0.47198999  0.17325343  0.32612941    -0.77000
C411        C  0.47051262  0.19833413  0.30426161     0.83800
N412        N  0.49861037  0.20910562  0.28978863    -0.78700
C413        C  0.80598007  0.97600360  0.30237691     0.81300
N414        N  0.79221033  0.00414928  0.29115806    -0.77100
C415        C  0.80006451  0.03336805  0.30533227     0.83700
N416        N  0.82142718  0.03432953  0.33078943    -0.77000
C417        C  0.83607354  0.00659362  0.34165522     0.83800
N418        N  0.82829462  0.97757196  0.32706228    -0.78700
C419        C  0.70848861  0.18607160  0.96645703     0.81300
N420        N  0.68212034  0.16556239  0.96468824    -0.77100
C421        C  0.66816680  0.15293988  0.99214616     0.83700
N422        N  0.68157321  0.16099168  0.02159927    -0.77000
C423        C  0.70676778  0.18267295  0.02396733     0.83800
N424        N  0.72021271  0.19536226  0.99630184    -0.78700
C425        C  0.69688387  0.47367069  0.19108685     0.81300
N426        N  0.70992047  0.50289076  0.20102529    -0.77100
C427        C  0.69900976  0.53134085  0.18744069     0.83700
N428        N  0.67551529  0.53029686  0.16376454    -0.77000
C429        C  0.66251297  0.50120627  0.15373843     0.83800
N430        N  0.67319445  0.47327051  0.16784340    -0.78700
C431        C  0.79646545  0.30690092  0.46672357     0.81300
N432        N  0.82046696  0.33001431  0.46700142    -0.77100
C433        C  0.83169089  0.34261926  0.49566038     0.83700
N434        N  0.81843740  0.33196293  0.52410690    -0.77000
C435        C  0.79526759  0.30805527  0.52435669     0.83800
N436        N  0.78417827  0.29532862  0.49548798    -0.78700
C437        C  0.30351501  0.47574143  0.19876922     0.81300
N438        N  0.32764199  0.47526500  0.17596236    -0.77100
C439        C  0.34015431  0.50338152  0.16378792     0.83700
N440        N  0.32860413  0.53235153  0.17509983    -0.77000
C441        C  0.30341612  0.53378557  0.19687843     0.83800
N442        N  0.29080812  0.50507706  0.20873083    -0.78700
C443        C  0.02663652  0.71129052  0.18593229     0.81300
N444        N  0.02695421  0.68656516  0.16347800    -0.77100
C445        C  0.99890274  0.67086021  0.15462885     0.83700
N446        N  0.97023408  0.67970085  0.16889780    -0.77000
C447        C  0.96934005  0.70467936  0.19092634     0.83800
N448        N  0.99747541  0.72074983  0.19916370    -0.78700
C449        C  0.30436932  0.80140630  0.97581668     0.81300
N450        N  0.28934791  0.79503098  0.00494557    -0.77100
C451        C  0.30099393  0.80887861  0.03318944     0.83700
N452        N  0.32655027  0.83020649  0.03139053    -0.77000
C453        C  0.34071094  0.83778076  0.00240528     0.83800
N454        N  0.33007018  0.82253305  0.97482207    -0.78700
C455        C  0.47024362  0.80158252  0.30988443     0.81300
N456        N  0.47202061  0.82489971  0.33372615    -0.77100
C457        C  0.50131248  0.83825675  0.34250205     0.83700
N458        N  0.52902936  0.82770086  0.32753358    -0.77000
C459        C  0.52771221  0.80399086  0.30417385     0.83800
N460        N  0.49826564  0.79098201  0.29513488    -0.78700
C461        C  0.18532892  0.70183973  0.53443688     0.81300
N462        N  0.16382050  0.67650127  0.53599734    -0.77100
C463        C  0.15044482  0.66359931  0.50850659     0.83700
N464        N  0.15957757  0.67588621  0.47913087    -0.77000
C465        C  0.18134827  0.70099113  0.47651643     0.83800
N466        N  0.19395786  0.71433825  0.50465603    -0.78700
C467        C  0.69478975  0.80086185  0.96855330     0.81300
N468        N  0.66945426  0.82231414  0.96681863    -0.77100
C469        C  0.65788400  0.83729192  0.99419140     0.83700
N470        N  0.67137009  0.82979645  0.02358271    -0.77000
C471        C  0.69610489  0.80770056  0.02586402     0.83800
N472        N  0.70814116  0.79348443  0.99812880    -0.78700
C473        C  0.19181162  0.31040962  0.47356789     0.81300
N474        N  0.20734868  0.30180100  0.50174450    -0.77100
C475        C  0.19703168  0.31417639  0.53104061     0.83700
N476        N  0.17145877  0.33546948  0.53165849    -0.77000
C477        C  0.15598207  0.34440662  0.50369415     0.83800
N478        N  0.16617197  0.33152450  0.47472632    -0.78700
C479        C  0.98044686  0.30475281  0.80678107     0.81300
N480        N  0.98043735  0.32728417  0.83143223    -0.77100
C481        C  0.00875337  0.33633346  0.84651564     0.83700
N482        N  0.03731455  0.32242446  0.83679920    -0.77000
C483        C  0.03791690  0.30024863  0.81189343     0.83800
N484        N  0.00938750  0.29141432  0.79688659    -0.78700
C485        C  0.19393103  0.03414041  0.69427824     0.81300
N486        N  0.17122851  0.03287034  0.66998318    -0.77100
C487        C  0.15677203  0.00405539  0.66135945     0.83700
N488        N  0.16540281  0.97636533  0.67749091    -0.77000
C489        C  0.18885047  0.97691374  0.70112652     0.83800
N490        N  0.20309849  0.00603509  0.70963960    -0.78700
C491        C  0.53761766  0.19623421  0.69648065     0.81300
N492        N  0.53674182  0.17529140  0.67050788    -0.77100
C493        C  0.50814483  0.16765549  0.65533985     0.83700
N494        N  0.48004552  0.18174310  0.66603334    -0.77000
C495        C  0.48015196  0.20229699  0.69228076     0.83800
N496        N  0.50899845  0.20944050  0.70771013    -0.78700
C497        C  0.31380831  0.47645086  0.79404888     0.81300
N498        N  0.33404763  0.47694793  0.82037146    -0.77100
C499        C  0.34092127  0.50514041  0.83660990     0.83700
N500        N  0.32753251  0.53350940  0.82582373    -0.77000
C501        C  0.30784865  0.53374001  0.79901116     0.83800
N502        N  0.30066775  0.50509860  0.78319450    -0.78700
C503        C  0.80661717  0.97032068  0.69759002     0.81300
N504        N  0.79397710  0.99936445  0.70839977    -0.77100
C505        C  0.80381547  0.02796086  0.69429167     0.83700
N506        N  0.82622468  0.02745744  0.66987619    -0.77000
C507        C  0.83974710  0.99892887  0.65975300     0.83800
N508        N  0.82963648  0.97041832  0.67348437    -0.78700
C509        C  0.96863566  0.69257276  0.80002705     0.81300
N510        N  0.99715377  0.70856679  0.79281214    -0.77100
C511        C  0.02595180  0.69844435  0.80642312     0.83700
N512        N  0.02568710  0.67314771  0.82796621    -0.77000
C513        C  0.99747489  0.65691958  0.83514327     0.83800
N514        N  0.96924451  0.66644826  0.82047923    -0.78700
C515        C  0.46824982  0.81282476  0.69556266     0.81300
N516        N  0.49625597  0.80049983  0.70878705    -0.77100
C517        C  0.52593241  0.81231275  0.69909808     0.83700
N518        N  0.52739122  0.83691763  0.67685268    -0.77000
C519        C  0.49970653  0.84928777  0.66321862     0.83800
N520        N  0.47024567  0.83667137  0.67247491    -0.78700
C521        C  0.68585368  0.52688080  0.79660207     0.81300
N522        N  0.70235580  0.49857960  0.78967320    -0.77100
C523        C  0.69303205  0.46975565  0.80380243     0.83700
N524        N  0.66770505  0.47012754  0.82532069    -0.77000
C525        C  0.65127554  0.49792479  0.83290612     0.83800
N526        N  0.66023403  0.52608980  0.81783678    -0.78700
C527        C  0.79998527  0.69911402  0.47056765     0.81300
N528        N  0.82357820  0.67569868  0.47222488    -0.77100
C529        C  0.83209038  0.66196953  0.50119554     0.83700
N530        N  0.81678808  0.67225013  0.52880117    -0.77000
C531        C  0.79398959  0.69638224  0.52785385     0.83800
N532        N  0.78545065  0.70982993  0.49865303    -0.78700
C533        C  0.20419595  0.29933023  0.44119118    -0.04300
C534        C  0.22544872  0.31967184  0.42320046    -0.01400
C535        C  0.23457500  0.31118925  0.39085188     0.03600
C536        C  0.22251842  0.28187137  0.37594942    -0.04300
C537        C  0.20210328  0.26086961  0.39495486    -0.01400
C538        C  0.19280787  0.26982660  0.42717116     0.03600
C539        C  0.23752259  0.34984152  0.43797588     0.38200
C540        C  0.19088400  0.22960335  0.38196387     0.38200
C541        C  0.17086879  0.24895995  0.44583033     0.36600
C542        C  0.25560660  0.33357242  0.37294856     0.36600
N543        N  0.15330935  0.23244367  0.46075896    -0.38200
N544        N  0.27250044  0.35149753  0.35889229    -0.38200
N545        N  0.18183688  0.20461994  0.37179116    -0.37600
N546        N  0.24706864  0.37386981  0.44984652    -0.37600
C547        C  0.29302261  0.44385796  0.21309182    -0.04300
C548        C  0.31732474  0.42143094  0.22334249    -0.01400
C549        C  0.30895147  0.38874727  0.23068362     0.03600
C550        C  0.27595547  0.37819855  0.22894492    -0.04300
C551        C  0.25136187  0.40097351  0.22018230    -0.01400
C552        C  0.25984979  0.43375512  0.21247962     0.03600
C553        C  0.35125652  0.43199306  0.22633860     0.38200
C554        C  0.21730913  0.39065669  0.21890100     0.38200
C555        C  0.23456123  0.45667383  0.20284681     0.36600
C556        C  0.33478636  0.36544695  0.23790253     0.36600
N557        N  0.21432674  0.47498686  0.19533004    -0.38200
N558        N  0.35542318  0.34684644  0.24336607    -0.38200
N559        N  0.19016754  0.38234035  0.21777016    -0.37600
N560        N  0.37825851  0.44051074  0.22867340    -0.37600
C561        C  0.43814030  0.21313556  0.29586273    -0.04300
C562        C  0.42894995  0.21802306  0.26279642    -0.01400
C563        C  0.39700011  0.22884221  0.25502705     0.03600
C564        C  0.37368014  0.23415219  0.28008598    -0.04300
C565        C  0.38328687  0.23078737  0.31312596    -0.01400
C566        C  0.41549738  0.22093462  0.32096802     0.03600
C567        C  0.45173614  0.21061147  0.23651577     0.38200
C568        C  0.35952074  0.23566285  0.33912998     0.38200
C569        C  0.42548316  0.21943971  0.35502638     0.36600
C570        C  0.38814693  0.23475521  0.22114360     0.36600
N571        N  0.43356298  0.21845636  0.38216493    -0.38200
N572        N  0.38109952  0.23965467  0.19416161    -0.38200
N573        N  0.34048102  0.23934264  0.35982680    -0.37600
N574        N  0.46985243  0.20472897  0.21549222    -0.37600
C575        C  0.27302860  0.22515441  0.12724289    -0.04300
C576        C  0.27128209  0.19186088  0.11732969    -0.01400
C577        C  0.28129842  0.18225712  0.08560665     0.03600
C578        C  0.29186808  0.20593170  0.06266121    -0.04300
C579        C  0.29188908  0.23944303  0.07189094    -0.01400
C580        C  0.28289434  0.24897290  0.10409103     0.03600
C581        C  0.25845584  0.16730726  0.13959673     0.38200
C582        C  0.30308262  0.26406948  0.04892034     0.38200
C583        C  0.28568809  0.28313339  0.11380386     0.36600
C584        C  0.28074908  0.14773846  0.07672370     0.36600
N585        N  0.28808913  0.31038856  0.12150608    -0.38200
N586        N  0.28063183  0.12017892  0.06981450    -0.38200
N587        N  0.31201587  0.28374256  0.03062388    -0.37600
N588        N  0.24809181  0.14778734  0.15731020    -0.37600
C589        C  0.12606809  0.27529169  0.22036071    -0.04300
C590        C  0.11632270  0.27427789  0.18712024    -0.01400
C591        C  0.08403036  0.28268526  0.17813611     0.03600
C592        C  0.06080286  0.29175012  0.20225757    -0.04300
C593        C  0.07002982  0.29139824  0.23559556    -0.01400
C594        C  0.10247675  0.28324647  0.24462831     0.03600
C595        C  0.13931755  0.26396935  0.16198142     0.38200
C596        C  0.04682458  0.30152629  0.26057389     0.38200
C597        C  0.11187025  0.28483906  0.27888228     0.36600
C598        C  0.07476881  0.28211307  0.14380013     0.36600
N599        N  0.11932487  0.28611888  0.30620536    -0.38200
N600        N  0.06741295  0.28190185  0.11643107    -0.38200
N601        N  0.02843523  0.30968832  0.28057288    -0.37600
N602        N  0.15759526  0.25571289  0.14191197    -0.37600
C603        C  0.22439049  0.13051649  0.27363779    -0.04300
C604        C  0.19451863  0.11678455  0.26255821    -0.01400
C605        C  0.18620454  0.08422586  0.27056949     0.03600
C606        C  0.20697966  0.06563622  0.29085144    -0.04300
C607        C  0.23758651  0.07869121  0.30055981    -0.01400
C608        C  0.24643485  0.11098431  0.29170311     0.03600
C609        C  0.17235158  0.13614008  0.24276034     0.38200
C610        C  0.25949886  0.05944398  0.32065167     0.38200
C611        C  0.27749077  0.12463607  0.30262310     0.36600
C612        C  0.15664495  0.06944235  0.25723947     0.36600
N613        N  0.30227464  0.13548362  0.31134983    -0.38200
N614        N  0.13335218  0.05740536  0.24625184    -0.38200
N615        N  0.27726361  0.04445833  0.33675747    -0.37600
N616        N  0.15465436  0.15166033  0.22707329    -0.37600
C617        C  0.86148527  0.00805651  0.36825921    -0.04300
C618        C  0.88245867  0.03583790  0.37177981    -0.01400
C619        C  0.90701392  0.03645526  0.39615321     0.03600
C620        C  0.91156319  0.00925680  0.41669400    -0.04300
C621        C  0.89085310  0.98172016  0.41359743    -0.01400
C622        C  0.86554738  0.98129014  0.39004422     0.03600
C623        C  0.87982188  0.06366364  0.34994529     0.38200
C624        C  0.89601942  0.95353362  0.43452031     0.38200
C625        C  0.84322447  0.95350694  0.38925051     0.36600
C626        C  0.92779223  0.06516198  0.40021591     0.36600
N627        N  0.82549361  0.93128818  0.38880437    -0.38200
N628        N  0.94434675  0.08803315  0.40359327    -0.38200
N629        N  0.90037933  0.93109277  0.45116751    -0.37600
N630        N  0.87782270  0.08600808  0.33270985    -0.37600
C631        C  0.08231040  0.00442154  0.41228975    -0.04300
C632        C  0.08138905  0.02853568  0.38757136    -0.01400
C633        C  0.10482098  0.02837814  0.36209956     0.03600
C634        C  0.13037790  0.00490329  0.36179976    -0.04300
C635        C  0.13135718  0.98095545  0.38686017    -0.01400
C636        C  0.10705403  0.98028553  0.41141251     0.03600
C637        C  0.05623170  0.05365006  0.38838083     0.38200
C638        C  0.15795909  0.95743254  0.38828878     0.38200
C639        C  0.10746761  0.95449689  0.43578294     0.36600
C640        C  0.10160303  0.05175635  0.33566266     0.36600
N641        N  0.10792968  0.93401624  0.45528022    -0.38200
N642        N  0.09848415  0.07049683  0.31472783    -0.38200
N643        N  0.17916668  0.93868145  0.38940527    -0.37600
N644        N  0.03600047  0.07347980  0.38903303    -0.37600
C645        C  0.86602488  0.99926108  0.63450472    -0.04300
C646        C  0.89129303  0.02321057  0.63587569    -0.01400
C647        C  0.91532081  0.02448956  0.61112768     0.03600
C648        C  0.91497138  0.00130885  0.58539059    -0.04300
C649        C  0.89022963  0.97704080  0.58426055    -0.01400
C650        C  0.86558298  0.97627724  0.60843231     0.03600
C651        C  0.89314203  0.04628654  0.66302371     0.38200
C652        C  0.88996079  0.95304672  0.55789436     0.38200
C653        C  0.83896374  0.95275038  0.60545801     0.36600
C654        C  0.94009583  0.05013248  0.61173237     0.36600
N655        N  0.81765504  0.93408612  0.60299798    -0.38200
N656        N  0.95979237  0.07062440  0.61213921    -0.38200
N657        N  0.88972610  0.93406796  0.53673216    -0.37600
N658        N  0.89461288  0.06473924  0.68461028    -0.37600
C659        C  0.08413388  0.99964826  0.58368818    -0.04300
C660        C  0.10656813  0.97380409  0.58768600    -0.01400
C661        C  0.13030281  0.97520681  0.61284455     0.03600
C662        C  0.13185558  0.00270204  0.63436702    -0.04300
C663        C  0.10925808  0.02874602  0.62989182    -0.01400
C664        C  0.08540572  0.02695890  0.60492477     0.03600
C665        C  0.10497370  0.94557923  0.56595072     0.38200
C666        C  0.10981587  0.05743194  0.65104924     0.38200
C667        C  0.06185912  0.05329600  0.60103898     0.36600
C668        C  0.15366343  0.94859395  0.61563859     0.36600
N669        N  0.04288584  0.07408482  0.59792585    -0.38200
N670        N  0.17218665  0.92727828  0.61787308    -0.38200
N671        N  0.11008255  0.08066971  0.66743445    -0.37600
N672        N  0.10369045  0.92309032  0.54859347    -0.37600
C673        C  0.76721150  0.27868060  0.36908756    -0.04300
C674        C  0.75482692  0.30786392  0.38369531    -0.01400
C675        C  0.76313066  0.31613487  0.41630112     0.03600
C676        C  0.78360067  0.29548955  0.43476120    -0.04300
C677        C  0.79487547  0.26591912  0.42102956    -0.01400
C678        C  0.78649342  0.25727775  0.38858036     0.03600
C679        C  0.73451270  0.33030926  0.36520036     0.38200
C680        C  0.81650828  0.24502719  0.43982467     0.38200
C681        C  0.79782035  0.22607781  0.37564628     0.36600
C682        C  0.75121797  0.34644195  0.43077286     0.36600
N683        N  0.80698724  0.20123872  0.36537935    -0.38200
N684        N  0.74181953  0.37060882  0.44235175    -0.38200
N685        N  0.83398831  0.22837382  0.45454861    -0.37600
N686        N  0.71816646  0.34826653  0.35068389    -0.37600
C687        C  0.72142591  0.37582878  0.22212593    -0.04300
C688        C  0.74673254  0.39816380  0.21376846    -0.01400
C689        C  0.73920028  0.43088975  0.20524071     0.03600
C690        C  0.70641861  0.44187680  0.20603540    -0.04300
C691        C  0.68156497  0.42041155  0.21717479    -0.01400
C692        C  0.68885477  0.38747797  0.22455851     0.03600
C693        C  0.78067846  0.38769272  0.21463686     0.38200
C694        C  0.64821413  0.43229787  0.22092522     0.38200
C695        C  0.66227965  0.36533860  0.23287807     0.36600
C696        C  0.76503693  0.45270080  0.19423517     0.36600
N697        N  0.64075531  0.34796048  0.23923300    -0.38200
N698        N  0.78574878  0.46998918  0.18541568    -0.38200
N699        N  0.62173412  0.44198882  0.22391843    -0.37600
N700        N  0.80775032  0.37933345  0.21565526    -0.37600
C701        C  0.71666801  0.19504116  0.05675494    -0.04300
C702        C  0.73613445  0.17559524  0.07756036    -0.01400
C703        C  0.74441096  0.18697585  0.10927652     0.03600
C704        C  0.73225768  0.21737464  0.12079895    -0.04300
C705        C  0.71226697  0.23647193  0.10014747    -0.01400
C706        C  0.70455967  0.22537664  0.06824520     0.03600
C707        C  0.74677743  0.14343432  0.06665469     0.38200
C708        C  0.69801739  0.26665677  0.11247124     0.38200
C709        C  0.68239139  0.24419319  0.04797342     0.36600
C710        C  0.76580794  0.16760686  0.12988237     0.36600
N711        N  0.66440572  0.25902670  0.03195955    -0.38200
N712        N  0.78307870  0.15223119  0.14618102    -0.38200
N713        N  0.68655955  0.29058631  0.12255590    -0.37600
N714        N  0.75490412  0.11763217  0.05803148    -0.37600
C715        C  0.77324147  0.12873680  0.27036618    -0.04300
C716        C  0.80171187  0.11322574  0.25833901    -0.01400
C717        C  0.80965189  0.08126782  0.26862793     0.03600
C718        C  0.78904895  0.06460935  0.29082237    -0.04300
C719        C  0.75956174  0.07929784  0.30127823    -0.01400
C720        C  0.75154412  0.11126830  0.29090533     0.03600
C721        C  0.82247553  0.12999562  0.23488621     0.38200
C722        C  0.73799558  0.06188253  0.32347069     0.38200
C723        C  0.72155278  0.12662602  0.30224891     0.36600
C724        C  0.83930858  0.06564853  0.25678411     0.36600
N725        N  0.69759481  0.13891431  0.31116095    -0.38200
N726        N  0.86293733  0.05312852  0.24734198    -0.38200
N727        N  0.72076344  0.04802247  0.34119542    -0.37600
N728        N  0.83880153  0.14335830  0.21596661    -0.37600
C729        C  0.62398788  0.22531292  0.26521758    -0.04300
C730        C  0.61169828  0.19353662  0.25683789    -0.01400
C731        C  0.57947515  0.18426246  0.26537901     0.03600
C732        C  0.55893593  0.20614013  0.28242878    -0.04300
C733        C  0.57020149  0.23796495  0.28986783    -0.01400
C734        C  0.60232936  0.24769470  0.28118533     0.03600
C735        C  0.63209092  0.16927248  0.24058786     0.38200
C736        C  0.54938709  0.26010183  0.30847594     0.38200
C737        C  0.61271261  0.28070276  0.28974826     0.36600
C738        C  0.56747435  0.15165199  0.25707979     0.36600
N739        N  0.62060188  0.30700255  0.29713575    -0.38200
N740        N  0.55789413  0.12566911  0.25061901    -0.38200
N741        N  0.53283655  0.27761887  0.32346970    -0.37600
N742        N  0.64810299  0.14971091  0.22767111    -0.37600
C743        C  0.93889100  0.29467915  0.20625601    -0.04300
C744        C  0.92135097  0.27352153  0.18506421    -0.01400
C745        C  0.88873671  0.26451622  0.19240928     0.03600
C746        C  0.87356113  0.27635396  0.22116989    -0.04300
C747        C  0.89183153  0.29581170  0.24343252    -0.01400
C748        C  0.92426892  0.30536080  0.23572559     0.03600
C749        C  0.93682828  0.26128453  0.15547732     0.38200
C750        C  0.87690928  0.30690453  0.27375573     0.38200
C751        C  0.94214642  0.32725469  0.25744150     0.36600
C752        C  0.87089451  0.24257487  0.17067384     0.36600
N753        N  0.95633408  0.34487806  0.27468520    -0.38200
N754        N  0.85658334  0.22494965  0.15352967    -0.38200
N755        N  0.86506221  0.31560341  0.29802982    -0.37600
N756        N  0.94923616  0.25145547  0.13192830    -0.37600
C757        C  0.21375617  0.72685423  0.37775193    -0.04300
C758        C  0.23372937  0.73432011  0.40501002    -0.01400
C759        C  0.22365983  0.72577103  0.43711184     0.03600
C760        C  0.19217716  0.71171289  0.44271803    -0.04300
C761        C  0.17149897  0.70606152  0.41502669    -0.01400
C762        C  0.18284323  0.71225232  0.38295212     0.03600
C763        C  0.26415243  0.75213444  0.40013620     0.38200
C764        C  0.13795616  0.69462634  0.41891808     0.38200
C765        C  0.16299265  0.70239898  0.35501158     0.36600
C766        C  0.24653436  0.73059734  0.46389127     0.36600
N767        N  0.14740133  0.69413367  0.33275728    -0.38200
N768        N  0.26501564  0.73432944  0.48510512    -0.38200
N769        N  0.11118648  0.68553530  0.42172824    -0.37600
N770        N  0.28811975  0.76688656  0.39632082    -0.37600
C771        C  0.37188865  0.77058984  0.28380350    -0.04300
C772        C  0.39331820  0.78356740  0.25966145    -0.01400
C773        C  0.42592051  0.79238884  0.26779161     0.03600
C774        C  0.43755396  0.78841932  0.30006872    -0.04300
C775        C  0.41694020  0.77382995  0.32368383    -0.01400
C776        C  0.38455244  0.76442600  0.31552250     0.03600
C777        C  0.38216987  0.78743731  0.22615220     0.38200
C778        C  0.42903013  0.76870496  0.35668742     0.38200
C779        C  0.36424730  0.74910702  0.34030346     0.36600
C780        C  0.44699253  0.80709780  0.24324507     0.36600
N781        N  0.34829362  0.73649919  0.36002991    -0.38200
N782        N  0.46377898  0.81888520  0.22369064    -0.38200
N783        N  0.43861623  0.76477686  0.38304077    -0.37600
N784        N  0.37336746  0.79052688  0.19940480    -0.37600
C785        C  0.26999335  0.78347128  0.13207116    -0.04300
C786        C  0.27846893  0.81621331  0.12403939    -0.01400
C787        C  0.28704103  0.82467307  0.09163962     0.03600
C788        C  0.28710540  0.80067667  0.06629874    -0.04300
C789        C  0.27588486  0.76864884  0.07368209    -0.01400
C790        C  0.26734111  0.76012541  0.10618564     0.03600
C791        C  0.27718640  0.84193986  0.14876759     0.38200
C792        C  0.27392864  0.74379376  0.04817256     0.38200
C793        C  0.25609973  0.72695354  0.11251329     0.36600
C794        C  0.29515045  0.85863901  0.08456495     0.36600
N795        N  0.24673520  0.70054889  0.11707992    -0.38200
N796        N  0.30177517  0.88569055  0.07913545    -0.38200
N797        N  0.27209638  0.72391410  0.02791593    -0.37600
N798        N  0.27606606  0.86251016  0.16837060    -0.37600
C799        C  0.12273381  0.74201593  0.21962654    -0.04300
C800        C  0.11608415  0.73897752  0.18569979    -0.01400
C801        C  0.08430136  0.73078902  0.17466353     0.03600
C802        C  0.05851264  0.72569232  0.19733440    -0.04300
C803        C  0.06441149  0.73209155  0.23098937    -0.01400
C804        C  0.09625046  0.74057061  0.24200057     0.03600
C805        C  0.14180986  0.74509028  0.16183785     0.38200
C806        C  0.03832879  0.72824268  0.25483478     0.38200
C807        C  0.10164211  0.74686665  0.27658613     0.36600
C808        C  0.07829445  0.72784771  0.13971623     0.36600
N809        N  0.10570814  0.75230221  0.30413147    -0.38200
N810        N  0.07371652  0.72544583  0.11183755    -0.38200
N811        N  0.01761147  0.72523763  0.27396380    -0.37600
N812        N  0.16232416  0.75004857  0.14289171    -0.37600
C813        C  0.27301153  0.63135386  0.22868538    -0.04300
C814        C  0.26778476  0.60420226  0.24934949    -0.01400
C815        C  0.27659755  0.57217610  0.23892462     0.03600
C816        C  0.29078782  0.56694111  0.20748443    -0.04300
C817        C  0.29481654  0.59449919  0.18652810    -0.01400
C818        C  0.28699972  0.62631247  0.19750251     0.03600
C819        C  0.25314033  0.60919053  0.28135905     0.38200
C820        C  0.30643195  0.59073847  0.15307524     0.38200
C821        C  0.29526737  0.65430416  0.17716062     0.36600
C822        C  0.27129716  0.54499664  0.26107467     0.36600
N823        N  0.30229646  0.67662070  0.16122244    -0.38200
N824        N  0.26679703  0.52340004  0.27881132    -0.38200
N825        N  0.31581484  0.58807311  0.12644692    -0.37600
N826        N  0.24153821  0.61315948  0.30693048    -0.37600
C827        C  0.22438211  0.87912960  0.27460961    -0.04300
C828        C  0.19314759  0.89079396  0.26533884    -0.01400
C829        C  0.18368368  0.92307709  0.27317659     0.03600
C830        C  0.20553110  0.94422158  0.28991754    -0.04300
C831        C  0.23751342  0.93326286  0.29736315    -0.01400
C832        C  0.24696573  0.90079669  0.28962402     0.03600
C833        C  0.17082397  0.86962102  0.24723231     0.38200
C834        C  0.26007059  0.95457437  0.31483442     0.38200
C835        C  0.27933343  0.88925936  0.29859369     0.36600
C836        C  0.15127206  0.93451232  0.26410612     0.36600
N837        N  0.30518907  0.88011078  0.30572029    -0.38200
N838        N  0.12541707  0.94362425  0.25693661    -0.38200
N839        N  0.27833107  0.97120243  0.32892154    -0.37600
N840        N  0.15318398  0.85271767  0.23265484    -0.37600
C841        C  0.79030778  0.71209774  0.43786006    -0.04300
C842        C  0.81487345  0.72066664  0.41506874    -0.01400
C843        C  0.80658765  0.72849686  0.38251103     0.03600
C844        C  0.77326266  0.72878400  0.37224361    -0.04300
C845        C  0.74853161  0.72245158  0.39583734    -0.01400
C846        C  0.75701625  0.71383810  0.42832012     0.03600
C847        C  0.84897991  0.72212846  0.42530052     0.38200
C848        C  0.71422238  0.72591724  0.38727718     0.38200
C849        C  0.73135494  0.70590035  0.45161305     0.36600
C850        C  0.83294159  0.73546517  0.35962348     0.36600
N851        N  0.71088455  0.69966586  0.47022033    -0.38200
N852        N  0.85403718  0.74121962  0.34156270    -0.38200
N853        N  0.68677463  0.72893902  0.38083462    -0.37600
N854        N  0.87612515  0.72338903  0.43348956    -0.37600
C855        C  0.72370674  0.62948793  0.22024135    -0.04300
C856        C  0.74658768  0.61075906  0.20173852    -0.01400
C857        C  0.73911793  0.57819644  0.19207099     0.03600
C858        C  0.70904838  0.56373437  0.20105772    -0.04300
C859        C  0.68708689  0.58141197  0.22104944    -0.01400
C860        C  0.69392859  0.61424381  0.23007522     0.03600
C861        C  0.77817351  0.62460740  0.19286458     0.38200
C862        C  0.65753388  0.56541409  0.23281684     0.38200
C863        C  0.66934877  0.63249990  0.24819637     0.36600
C864        C  0.76233983  0.55960118  0.17258639     0.36600
N865        N  0.64957582  0.64693019  0.26255232    -0.38200
N866        N  0.78101348  0.54485169  0.15713421    -0.38200
N867        N  0.63421241  0.55237738  0.24240344    -0.37600
N868        N  0.80333328  0.63569437  0.18575286    -0.37600
C869        C  0.72757000  0.78267946  0.12389527    -0.04300
C870        C  0.72129183  0.75762031  0.10050559    -0.01400
C871        C  0.71111186  0.76571227  0.06845205     0.03600
C872        C  0.70897893  0.79886893  0.05879393    -0.04300
C873        C  0.71728337  0.82383861  0.08148214    -0.01400
C874        C  0.72610523  0.81586830  0.11388623     0.03600
C875        C  0.72418388  0.72337222  0.10948991     0.38200
C876        C  0.71706547  0.85793780  0.07141985     0.38200
C877        C  0.73431911  0.84207159  0.13669573     0.36600
C878        C  0.70048760  0.73988796  0.04624356     0.36600
N879        N  0.74075328  0.86300344  0.15485983    -0.38200
N880        N  0.69161676  0.71933494  0.02868165    -0.38200
N881        N  0.71689035  0.88510014  0.06335880    -0.37600
N882        N  0.72685464  0.69604080  0.11647024    -0.37600
C883        C  0.62402284  0.77376322  0.27273260    -0.04300
C884        C  0.60619791  0.79774943  0.25474938    -0.01400
C885        C  0.57409433  0.80662062  0.26423141     0.03600
C886        C  0.55886005  0.79107048  0.29085622    -0.04300
C887        C  0.57508448  0.76552776  0.30715275    -0.01400
C888        C  0.60731650  0.75664492  0.29813443     0.03600
C889        C  0.62019697  0.81320946  0.22599015     0.38200
C890        C  0.55880314  0.74904792  0.33410268     0.38200
C891        C  0.62286424  0.73005070  0.31566737     0.36600
C892        C  0.55687914  0.83246899  0.24706509     0.36600
N893        N  0.63486632  0.70853738  0.32955805    -0.38200
N894        N  0.54316539  0.85312218  0.23345472    -0.38200
N895        N  0.54576755  0.73600158  0.35559231    -0.37600
N896        N  0.63117915  0.82557057  0.20299709    -0.37600
C897        C  0.77895478  0.87864541  0.26877406    -0.04300
C898        C  0.75438151  0.90203043  0.27621544    -0.01400
C899        C  0.76313297  0.93408571  0.28638163     0.03600
C900        C  0.79648101  0.94343696  0.28850979    -0.04300
C901        C  0.82093465  0.92081857  0.27902023    -0.01400
C902        C  0.81228055  0.88867137  0.26922561     0.03600
C903        C  0.71996623  0.89297674  0.27469577     0.38200
C904        C  0.85515632  0.93077404  0.27881715     0.38200
C905        C  0.83785546  0.86622196  0.25882133     0.36600
C906        C  0.73770312  0.95677722  0.29650722     0.36600
N907        N  0.85830056  0.84840469  0.25051648    -0.38200
N908        N  0.71734656  0.97474780  0.30467673    -0.38200
N909        N  0.88241962  0.93874806  0.27862739    -0.37600
N910        N  0.69250841  0.88584324  0.27324021    -0.37600
C911        C  0.87203880  0.73009261  0.22184071    -0.04300
C912        C  0.89018680  0.75188826  0.20212006    -0.01400
C913        C  0.92278646  0.74441161  0.19338906     0.03600
C914        C  0.93726192  0.71504362  0.20425685    -0.04300
C915        C  0.91952239  0.69390940  0.22511200    -0.01400
C916        C  0.88695171  0.70146213  0.23393728     0.03600
C917        C  0.87500655  0.78165979  0.19024094     0.38200
C918        C  0.93487630  0.66446398  0.23756162     0.38200
C919        C  0.86859746  0.67966449  0.25515547     0.36600
C920        C  0.94100726  0.76626274  0.17214106     0.36600
N921        N  0.85387996  0.66237799  0.27211634    -0.38200
N922        N  0.95563015  0.78363269  0.15519190    -0.38200
N923        N  0.94718144  0.64105046  0.24760949    -0.37600
N924        N  0.86282911  0.80537495  0.18075986    -0.37600
C925        C  0.28921945  0.37747884  0.76541427    -0.04300
C926        C  0.32246602  0.38734645  0.76824855    -0.01400
C927        C  0.33047987  0.42036299  0.77499599     0.03600
C928        C  0.30551183  0.44404606  0.77910609    -0.04300
C929        C  0.27264134  0.43501427  0.77287600    -0.01400
C930        C  0.26447171  0.40196807  0.76612150     0.03600
C931        C  0.34877242  0.36385890  0.76353791     0.38200
C932        C  0.24677222  0.45927811  0.77465004     0.38200
C933        C  0.23022825  0.39342138  0.76108157     0.36600
C934        C  0.36471648  0.43007326  0.77732848     0.36600
N935        N  0.20295667  0.38669611  0.75681210    -0.38200
N936        N  0.39197357  0.43786209  0.77916887    -0.38200
N937        N  0.22580667  0.47830093  0.77565031    -0.37600
N938        N  0.36984028  0.34526562  0.75976437    -0.37600
C939        C  0.38210629  0.22917690  0.72082933    -0.04300
C940        C  0.39518046  0.23992081  0.69068921    -0.01400
C941        C  0.42807683  0.23308401  0.68242876     0.03600
C942        C  0.44823325  0.21531156  0.70410669    -0.04300
C943        C  0.43581398  0.20617977  0.73502443    -0.01400
C944        C  0.40278112  0.21283612  0.74326689     0.03600
C945        C  0.37490169  0.25850262  0.66831049     0.38200
C946        C  0.45664886  0.18881465  0.75785416     0.38200
C947        C  0.38960321  0.20119027  0.77409167     0.36600
C948        C  0.44147713  0.24483424  0.65172362     0.36600
N949        N  0.37908467  0.19167678  0.79859960    -0.38200
N950        N  0.45231569  0.25434696  0.62735755    -0.38200
N951        N  0.47339401  0.17512810  0.77608869    -0.37600
N952        N  0.35869482  0.27335441  0.65051457    -0.37600
C953        C  0.22691076  0.13157429  0.72132437    -0.04300
C954        C  0.24766225  0.11036583  0.70317962    -0.01400
C955        C  0.23716201  0.07827777  0.69487332     0.03600
C956        C  0.20631986  0.06664729  0.70533766    -0.04300
C957        C  0.18583549  0.08733888  0.72397306    -0.01400
C958        C  0.19569335  0.11975850  0.73143184     0.03600
C959        C  0.28010292  0.12117861  0.69334460     0.38200
C960        C  0.15437890  0.07519985  0.73544686     0.38200
C961        C  0.17275221  0.14126630  0.74815178     0.36600
C962        C  0.25772027  0.05756744  0.67457174     0.36600
N963        N  0.15437078  0.15838881  0.76136113    -0.38200
N964        N  0.27413898  0.04131628  0.65809654    -0.38200
N965        N  0.12936239  0.06548376  0.74469849    -0.37600
N966        N  0.30599623  0.12976763  0.68548505    -0.37600
C967        C  0.13527743  0.27352036  0.78043851    -0.04300
C968        C  0.11198680  0.28445266  0.75726997    -0.01400
C969        C  0.07946484  0.29128399  0.76704795     0.03600
C970        C  0.07012768  0.28784684  0.80018711    -0.04300
C971        C  0.09290080  0.27526737  0.82293183    -0.01400
C972        C  0.12525677  0.26807229  0.81314646     0.03600
C973        C  0.12127046  0.28824800  0.72319155     0.38200
C974        C  0.08289529  0.26924050  0.85648389     0.38200
C975        C  0.14850988  0.25619582  0.83722926     0.36600
C976        C  0.05591827  0.30269873  0.74307801     0.36600
N977        N  0.16704799  0.24661166  0.85635659    -0.38200
N978        N  0.03703086  0.31154883  0.72393738    -0.38200
N979        N  0.07491441  0.26432430  0.88320729    -0.37600
N980        N  0.12861811  0.29128806  0.69600119    -0.37600
C981        C  0.23357044  0.28592770  0.62652569    -0.04300
C982        C  0.22837323  0.26191176  0.60190823    -0.01400
C983        C  0.21889758  0.27122172  0.56994812     0.03600
C984        C  0.21282872  0.30454481  0.56261997    -0.04300
C985        C  0.21947071  0.32867697  0.58680266    -0.01400
C986        C  0.23014791  0.31950075  0.61834020     0.03600
C987        C  0.23047737  0.22736759  0.60993293     0.38200
C988        C  0.21583514  0.36323109  0.57915782     0.38200
C989        C  0.23790330  0.34491842  0.64220962     0.36600
C990        C  0.21429491  0.24614543  0.54505539     0.36600
N991        N  0.24404847  0.36528959  0.66110210    -0.38200
N992        N  0.21106298  0.22604570  0.52519991    -0.38200
N993        N  0.21284073  0.39074902  0.57307798    -0.37600
N994        N  0.23190721  0.19984741  0.61653505    -0.37600
C995        C  0.28015665  0.22801010  0.87452667    -0.04300
C996        C  0.30155998  0.24801634  0.89379617    -0.01400
C997        C  0.30896996  0.23951907  0.92650212     0.03600
C998        C  0.29453966  0.21173090  0.94085757    -0.04300
C999        C  0.27201258  0.19273676  0.92275049    -0.01400
C1000       C  0.26494768  0.20050641  0.88982126     0.03600
C1001       C  0.31637498  0.27745283  0.88043477     0.38200
C1002       C  0.25687933  0.16429189  0.93786063     0.38200
C1003       C  0.24307837  0.17886003  0.87173793     0.36600
C1004       C  0.33263477  0.25864484  0.94513515     0.36600
N1005       N  0.22563393  0.16146826  0.85748887    -0.38200
N1006       N  0.35163773  0.27371490  0.95998893    -0.38200
N1007       N  0.24488127  0.14160813  0.94991250    -0.37600
N1008       N  0.32838937  0.30092538  0.86998062    -0.37600
C1009       C  0.77194239  0.27907690  0.62295550    -0.04300
C1010       C  0.76413755  0.31096701  0.61172553    -0.01400
C1011       C  0.76996666  0.31971071  0.57887029     0.03600
C1012       C  0.78286585  0.29661067  0.55654075    -0.04300
C1013       C  0.78785329  0.26402223  0.56679447    -0.01400
C1014       C  0.78261458  0.25529950  0.59987849     0.03600
C1015       C  0.75056072  0.33530977  0.63382173     0.38200
C1016       C  0.79948652  0.23964459  0.54364378     0.38200
C1017       C  0.78754623  0.22158486  0.60987621     0.36600
C1018       C  0.76278776  0.35277434  0.56796875     0.36600
N1019       N  0.79140255  0.19466301  0.61778854    -0.38200
N1020       N  0.75711183  0.37911189  0.55926347    -0.38200
N1021       N  0.80858019  0.21993546  0.52533467    -0.37600
N1022       N  0.73909964  0.35477262  0.65100280    -0.37600
C1023       C  0.72978354  0.37279201  0.77812464    -0.04300
C1024       C  0.73523249  0.39932472  0.75671332    -0.01400
C1025       C  0.72345644  0.43107433  0.76460485     0.03600
C1026       C  0.70890595  0.43735230  0.79562302    -0.04300
C1027       C  0.70726435  0.41112802  0.81846181    -0.01400
C1028       C  0.71539984  0.37890684  0.80889012     0.03600
C1029       C  0.75443316  0.39433987  0.72727670     0.38200
C1030       C  0.69822781  0.41696506  0.85239172     0.38200
C1031       C  0.70686365  0.35172386  0.83006050     0.36600
C1032       C  0.72564150  0.45663020  0.74015195     0.36600
N1033       N  0.69916455  0.33010604  0.84662573    -0.38200
N1034       N  0.72730708  0.47684541  0.72042943    -0.38200
N1035       N  0.69126516  0.42149771  0.87951211    -0.37600
N1036       N  0.77061022  0.39081588  0.70427220    -0.37600
C1037       C  0.79255022  0.06027640  0.70625007    -0.04300
C1038       C  0.80685390  0.07428687  0.73453350    -0.01400
C1039       C  0.80124088  0.10755698  0.74233863     0.03600
C1040       C  0.78180891  0.12706031  0.72158384    -0.04300
C1041       C  0.76686218  0.11285610  0.69372144    -0.01400
C1042       C  0.77224895  0.07953174  0.68607619     0.03600
C1043       C  0.82904504  0.05505187  0.75439133     0.38200
C1044       C  0.74649144  0.13268787  0.67254118     0.38200
C1045       C  0.75771858  0.06516429  0.65688063     0.36600
C1046       C  0.81634690  0.12208527  0.77112736     0.36600
N1047       N  0.74628561  0.05355199  0.63360113    -0.38200
N1048       N  0.82841321  0.13376346  0.79404924    -0.38200
N1049       N  0.73025023  0.14841043  0.65554209    -0.37600
N1050       N  0.84695618  0.03974931  0.77004764    -0.37600
C1051       C  0.63607673  0.22284851  0.72710475    -0.04300
C1052       C  0.62743936  0.18958325  0.72160021    -0.01400
C1053       C  0.59477468  0.18084089  0.71399897     0.03600
C1054       C  0.57028006  0.20519669  0.71083687    -0.04300
C1055       C  0.57849654  0.23819362  0.71812929    -0.01400
C1056       C  0.61123693  0.24700628  0.72574964     0.03600
C1057       C  0.65236597  0.16420383  0.72199687     0.38200
C1058       C  0.55353788  0.26341818  0.71737968     0.38200
C1059       C  0.61925497  0.28114380  0.73216411     0.36600
C1060       C  0.58631165  0.14640339  0.71012175     0.36600
N1061       N  0.62578142  0.30837314  0.73705468    -0.38200
N1062       N  0.57955683  0.11896067  0.70714918    -0.38200
N1063       N  0.53367531  0.28361943  0.71726291    -0.37600
N1064       N  0.67213670  0.14390304  0.72222368    -0.37600
C1065       C  0.74648605  0.21748817  0.87269564    -0.04300
C1066       C  0.74111663  0.24086130  0.89796288    -0.01400
C1067       C  0.72959698  0.23072912  0.92903887     0.03600
C1068       C  0.72472500  0.19708968  0.93565143    -0.04300
C1069       C  0.73423326  0.17366633  0.91193804    -0.01400
C1070       C  0.74452506  0.18370385  0.88052985     0.03600
C1071       C  0.74681368  0.27544396  0.89215510     0.38200
C1072       C  0.73430072  0.13909183  0.92021267     0.38200
C1073       C  0.75373129  0.15900433  0.85654816     0.36600
C1074       C  0.72142330  0.25514376  0.95363667     0.36600
N1075       N  0.76099057  0.13915491  0.83756027    -0.38200
N1076       N  0.71496971  0.27480713  0.97310189    -0.38200
N1077       N  0.73450036  0.11156202  0.92694453    -0.37600
N1078       N  0.75197026  0.30302935  0.88802251    -0.37600
C1079       C  0.88534374  0.27766718  0.76767431    -0.04300
C1080       C  0.89458666  0.31099476  0.77029890    -0.01400
C1081       C  0.92608740  0.31976942  0.78176441     0.03600
C1082       C  0.94879721  0.29526792  0.79085674    -0.04300
C1083       C  0.94030583  0.26187359  0.78611505    -0.01400
C1084       C  0.90885692  0.25315529  0.77413177     0.03600
C1085       C  0.87177095  0.33637386  0.76052661     0.38200
C1086       C  0.96304279  0.23632896  0.79555904     0.38200
C1087       C  0.90031414  0.21887415  0.76968829     0.36600
C1088       C  0.93513394  0.35417421  0.78395536     0.36600
N1089       N  0.89364333  0.19150909  0.76591530    -0.38200
N1090       N  0.94238666  0.38158533  0.78577733    -0.38200
N1091       N  0.98117087  0.21599868  0.80325393    -0.37600
N1092       N  0.85368322  0.35660868  0.75250187    -0.37600
C1093       C  0.22183021  0.73125074  0.62963820    -0.04300
C1094       C  0.22859971  0.69959651  0.61678650    -0.01400
C1095       C  0.21798833  0.69076584  0.58504672     0.03600
C1096       C  0.20070506  0.71335853  0.56548232    -0.04300
C1097       C  0.19461524  0.74515727  0.57775619    -0.01400
C1098       C  0.20567775  0.75430951  0.60938933     0.03600
C1099       C  0.24515559  0.67524161  0.63658588     0.38200
C1100       C  0.17467012  0.76759447  0.55891570     0.38200
C1101       C  0.20081040  0.78770230  0.62075674     0.36600
C1102       C  0.22372997  0.65770486  0.57297825     0.36600
N1103       N  0.19710769  0.81441403  0.62969703    -0.38200
N1104       N  0.22793137  0.63125829  0.56349835    -0.38200
N1105       N  0.15831737  0.78528110  0.54409337    -0.37600
N1106       N  0.25845240  0.65581515  0.65226099    -0.37600
C1107       C  0.37047107  0.78218693  0.72370063    -0.04300
C1108       C  0.39309146  0.79305258  0.74772199    -0.01400
C1109       C  0.42535097  0.80204419  0.73874845     0.03600
C1110       C  0.43542637  0.80029620  0.70568284    -0.04300
C1111       C  0.41329915  0.78813846  0.68187389    -0.01400
C1112       C  0.38105478  0.77907979  0.69077904     0.03600
C1113       C  0.38346702  0.79436338  0.78192939     0.38200
C1114       C  0.42386453  0.78446318  0.64811701     0.38200
C1115       C  0.35855808  0.76751928  0.66566269     0.36600
C1116       C  0.44768869  0.81421218  0.76360727     0.36600
N1117       N  0.34065221  0.75816891  0.64567574    -0.38200
N1118       N  0.46507759  0.82388238  0.78386178    -0.38200
N1119       N  0.43228530  0.78145181  0.62121201    -0.37600
N1120       N  0.37578771  0.79535230  0.80919813    -0.37600
C1121       C  0.12329978  0.73356528  0.78188628    -0.04300
C1122       C  0.11196541  0.73475179  0.81462625    -0.01400
C1123       C  0.07966953  0.72471325  0.82238070     0.03600
C1124       C  0.05806327  0.71376896  0.79749684    -0.04300
C1125       C  0.06850979  0.71498249  0.76451924    -0.01400
C1126       C  0.10083652  0.72508044  0.75671590     0.03600
C1127       C  0.13308295  0.74765079  0.84027300     0.38200
C1128       C  0.04662719  0.70411537  0.73862580     0.38200
C1129       C  0.11113966  0.72571267  0.72272319     0.36600
C1130       C  0.06845581  0.72610596  0.85608261     0.36600
N1131       N  0.11929759  0.72653492  0.69559618    -0.38200
N1132       N  0.05939236  0.72724149  0.88291578    -0.38200
N1133       N  0.02920065  0.69540338  0.71795286    -0.37600
N1134       N  0.14976353  0.75829177  0.86067720    -0.37600
C1135       C  0.27783050  0.63106388  0.77094801    -0.04300
C1136       C  0.30965497  0.61933789  0.76301235    -0.01400
C1137       C  0.31861721  0.58675155  0.77041408     0.03600
C1138       C  0.29634636  0.56570533  0.78636082    -0.04300
C1139       C  0.26445926  0.57676917  0.79347161    -0.01400
C1140       C  0.25507329  0.60910337  0.78554865     0.03600
C1141       C  0.33406588  0.64102547  0.74888588     0.38200
C1142       C  0.24163817  0.55522885  0.81017858     0.38200
C1143       C  0.22179477  0.61952291  0.79248419     0.36600
C1144       C  0.35108639  0.57482976  0.76204319     0.36600
N1145       N  0.19527148  0.62783701  0.79811723    -0.38200
N1146       N  0.37690064  0.56512661  0.75541793    -0.38200
N1147       N  0.22342096  0.53819579  0.82367621    -0.37600
N1148       N  0.35375452  0.65813216  0.73769917    -0.37600
C1149       C  0.27360639  0.77615608  0.87834368    -0.04300
C1150       C  0.25590785  0.79957239  0.89667095    -0.01400
C1151       C  0.26462482  0.80634988  0.92947671     0.03600
C1152       C  0.29077579  0.78938326  0.94429311    -0.04300
C1153       C  0.30730642  0.76466308  0.92652805    -0.01400
C1154       C  0.29884505  0.75814585  0.89356398     0.03600
C1155       C  0.22883084  0.81682597  0.88160681     0.38200
C1156       C  0.33332710  0.74627414  0.94211180     0.38200
C1157       C  0.31685937  0.73375037  0.87494120     0.36600
C1158       C  0.24763614  0.83181181  0.94759273     0.36600
N1159       N  0.33128407  0.71436405  0.86003741    -0.38200
N1160       N  0.23421522  0.85217719  0.96211383    -0.38200
N1161       N  0.35394745  0.73147281  0.95462762    -0.37600
N1162       N  0.20714019  0.83040211  0.86951510    -0.37600
C1163       C  0.21774157  0.88050912  0.73449334    -0.04300
C1164       C  0.18454695  0.89050627  0.73603255    -0.01400
C1165       C  0.17558558  0.92278439  0.72742503     0.03600
C1166       C  0.19941683  0.94522887  0.71596175    -0.04300
C1167       C  0.23274858  0.93580385  0.71581848    -0.01400
C1168       C  0.24192684  0.90383230  0.72551967     0.03600
C1169       C  0.15944253  0.86770472  0.74687722     0.38200
C1170       C  0.25760521  0.95827347  0.70393216     0.38200
C1171       C  0.27626184  0.89464985  0.72467327     0.36600
C1172       C  0.14176765  0.93317264  0.73111255     0.36600
N1173       N  0.30370715  0.88753220  0.72412080    -0.38200
N1174       N  0.11487409  0.94157086  0.73433244    -0.38200
N1175       N  0.27764974  0.97595646  0.69442053    -0.37600
N1176       N  0.13940902  0.84947788  0.75539074    -0.37600
C1177       C  0.76358079  0.72552486  0.62430456    -0.04300
C1178       C  0.75775128  0.69317942  0.61288972    -0.01400
C1179       C  0.76518553  0.68457123  0.58033090     0.03600
C1180       C  0.77945476  0.70777474  0.55911685    -0.04300
C1181       C  0.78367080  0.74049976  0.56980581    -0.01400
C1182       C  0.77540758  0.74946006  0.60223040     0.03600
C1183       C  0.74598798  0.66799897  0.63504983     0.38200
C1184       C  0.79815523  0.76453745  0.54806053     0.38200
C1185       C  0.77891007  0.78334300  0.61272897     0.36600
C1186       C  0.75845675  0.65152652  0.56868095     0.36600
N1187       N  0.78157227  0.81040951  0.62100760    -0.38200
N1188       N  0.75299527  0.62522305  0.55936801    -0.38200
N1189       N  0.80979806  0.78366610  0.53071313    -0.37600
N1190       N  0.73670239  0.64795093  0.65276670    -0.37600
C1191       C  0.71568830  0.62456189  0.76709545    -0.04300
C1192       C  0.68295055  0.61377505  0.76227461    -0.01400
C1193       C  0.67349107  0.58163978  0.77107029     0.03600
C1194       C  0.69681844  0.55930640  0.78359199    -0.04300
C1195       C  0.72986035  0.56947820  0.78668833    -0.01400
C1196       C  0.73914378  0.60197470  0.77892250     0.03600
C1197       C  0.65839039  0.63603383  0.74949088     0.38200
C1198       C  0.75417759  0.54712238  0.79961006     0.38200
C1199       C  0.77302394  0.61204877  0.78327911     0.36600
C1200       C  0.63938042  0.57184367  0.76766939     0.36600
N1201       N  0.80001006  0.62006595  0.78705929    -0.38200
N1202       N  0.61209461  0.56431062  0.76525999    -0.38200
N1203       N  0.77361721  0.52931023  0.80988154    -0.37600
N1204       N  0.63884356  0.65366656  0.73908789    -0.37600
C1205       C  0.62101534  0.77435745  0.72550345    -0.04300
C1206       C  0.60151388  0.79073007  0.74919827    -0.01400
C1207       C  0.56985703  0.80210729  0.74106221     0.03600
C1208       C  0.55687425  0.79636472  0.70957144    -0.04300
C1209       C  0.57481391  0.77727805  0.68696198    -0.01400
C1210       C  0.60673148  0.76636348  0.69472877     0.03600
C1211       C  0.61353481  0.79512110  0.78238615     0.38200
C1212       C  0.56032821  0.76894890  0.65550780     0.38200
C1213       C  0.62484104  0.74763453  0.67046845     0.36600
C1214       C  0.55123351  0.82081893  0.76484837     0.36600
N1215       N  0.63902029  0.73247040  0.65109735    -0.38200
N1216       N  0.53689200  0.83588467  0.78414468    -0.38200
N1217       N  0.54871718  0.76231063  0.63046706    -0.37600
N1218       N  0.62304938  0.79837134  0.80890761    -0.37600
C1219       C  0.72502959  0.76841114  0.87326166    -0.04300
C1220       C  0.74689460  0.78692902  0.89277218    -0.01400
C1221       C  0.73807416  0.79583174  0.92505926     0.03600
C1222       C  0.70739806  0.78607323  0.93785743    -0.04300
C1223       C  0.68675876  0.76538636  0.91917141    -0.01400
C1224       C  0.69538637  0.75683051  0.88681943     0.03600
C1225       C  0.77783026  0.79789455  0.87905624     0.38200
C1226       C  0.65654305  0.75305172  0.93333041     0.38200
C1227       C  0.67331458  0.73692400  0.86712064     0.36600
C1228       C  0.75982058  0.81633790  0.94446012     0.36600
N1229       N  0.65566714  0.72110057  0.85139557    -0.38200
N1230       N  0.77724696  0.83267819  0.95990155    -0.38200
N1231       N  0.63260783  0.74309283  0.94486818    -0.37600
N1232       N  0.80246098  0.80653956  0.86792156    -0.37600
C1233       C  0.77737622  0.87367897  0.73069418    -0.04300
C1234       C  0.75323358  0.89757667  0.72355650    -0.01400
C1235       C  0.76260157  0.92959757  0.71387989     0.03600
C1236       C  0.79613244  0.93831724  0.71187086    -0.04300
C1237       C  0.82009483  0.91513541  0.72099772    -0.01400
C1238       C  0.81086842  0.88305538  0.73002783     0.03600
C1239       C  0.71870748  0.88890285  0.72426615     0.38200
C1240       C  0.85454431  0.92431297  0.72123334     0.38200
C1241       C  0.83624149  0.85974102  0.73853558     0.36600
C1242       C  0.73770672  0.95285140  0.70394088     0.36600
N1243       N  0.85672457  0.84128771  0.74492068    -0.38200
N1244       N  0.71787240  0.97136095  0.69586414    -0.38200
N1245       N  0.88197944  0.93166421  0.72135326    -0.37600
N1246       N  0.69113256  0.88211533  0.72485958    -0.37600
C1247       C  0.87046207  0.72068533  0.77202035    -0.04300
C1248       C  0.88322989  0.68994940  0.76244665    -0.01400
C1249       C  0.91608753  0.68175724  0.76972061     0.03600
C1250       C  0.93630241  0.70385520  0.78735773    -0.04300
C1251       C  0.92377993  0.73494681  0.79621267    -0.01400
C1252       C  0.89107880  0.74339925  0.78831766     0.03600
C1253       C  0.86255076  0.66667059  0.74509018     0.38200
C1254       C  0.94390237  0.75760932  0.81497794     0.38200
C1255       C  0.87814633  0.77500384  0.79821397     0.36600
C1256       C  0.92938798  0.65066733  0.75862868     0.36600
N1257       N  0.86775318  0.80015049  0.80626266    -0.38200
N1258       N  0.94027649  0.62603569  0.74966625    -0.38200
N1259       N  0.95986638  0.77569729  0.83005832    -0.37600
N1260       N  0.84618706  0.64798734  0.73121318    -0.37600
C1261       C  0.36574893  0.86442564  0.00067132    -0.04300
C1262       C  0.36503564  0.88745208  0.97477054    -0.01400
C1263       C  0.38925407  0.91208492  0.97269453     0.03600
C1264       C  0.41332840  0.91510072  0.99730204    -0.04300
C1265       C  0.41300722  0.89346099  0.02413433    -0.01400
C1266       C  0.38990203  0.86771963  0.02544323     0.03600
C1267       C  0.33853699  0.88705413  0.95103265     0.38200
C1268       C  0.43618247  0.89810436  0.05073601     0.38200
C1269       C  0.39166740  0.84428463  0.05201024     0.36600
C1270       C  0.38944918  0.93445917  0.94517891     0.36600
N1271       N  0.39305996  0.82561422  0.07320635    -0.38200
N1272       N  0.38966423  0.95238249  0.92330848    -0.38200
N1273       N  0.45446780  0.90196621  0.07208835    -0.37600
N1274       N  0.31728589  0.88692496  0.93224606    -0.37600
C1275       C  0.36600264  0.13473684  0.99806409    -0.04300
C1276       C  0.39067246  0.13247752  0.02244454    -0.01400
C1277       C  0.41506248  0.10811560  0.02023511     0.03600
C1278       C  0.41545545  0.08604963  0.99353477    -0.04300
C1279       C  0.39108368  0.08814061  0.96917620    -0.01400
C1280       C  0.36621424  0.11198123  0.97158663     0.03600
C1281       C  0.39182312  0.15565365  0.04949898     0.38200
C1282       C  0.39177046  0.06576004  0.94141274     0.38200
C1283       C  0.34037540  0.11209894  0.94713065     0.36600
C1284       C  0.44000228  0.10573064  0.04546320     0.36600
N1285       N  0.31992643  0.11197627  0.92747840    -0.38200
N1286       N  0.46009128  0.10380814  0.06536552    -0.38200
N1287       N  0.39231710  0.04794256  0.91927101    -0.37600
N1288       N  0.39281645  0.17400513  0.07119232    -0.37600
C1289       C  0.58308979  0.91254530  0.99132922    -0.04300
C1290       C  0.58285928  0.88867003  0.01628748    -0.01400
C1291       C  0.60637009  0.86336961  0.01636115     0.03600
C1292       C  0.63127427  0.86233140  0.99218084    -0.04300
C1293       C  0.63104338  0.88596443  0.96681437    -0.01400
C1294       C  0.60691909  0.91071875  0.96632025     0.03600
C1295       C  0.55832732  0.89009373  0.04200616     0.38200
C1296       C  0.65594222  0.88553033  0.94143713     0.38200
C1297       C  0.60648881  0.93439748  0.93991453     0.36600
C1298       C  0.60393575  0.83762684  0.04067147     0.36600
N1299       N  0.60608453  0.95342639  0.91900067    -0.38200
N1300       N  0.60190247  0.81699724  0.05992557    -0.38200
N1301       N  0.67563994  0.88520364  0.92103611    -0.37600
N1302       N  0.53864687  0.89106153  0.06239904    -0.37600
C1303       C  0.63852446  0.13049098  0.99033694    -0.04300
C1304       C  0.63002230  0.11337405  0.96092567    -0.01400
C1305       C  0.60401128  0.09034371  0.96064008     0.03600
C1306       C  0.58595100  0.08408394  0.98926978    -0.04300
C1307       C  0.59240584  0.10247424  0.01777901    -0.01400
C1308       C  0.61818894  0.12569129  0.01838966     0.03600
C1309       C  0.64709234  0.11928940  0.93037084     0.38200
C1310       C  0.57199137  0.09773045  0.04650388     0.38200
C1311       C  0.62235377  0.14542053  0.04780253     0.36600
C1312       C  0.59513057  0.07339761  0.93053881     0.36600
N1313       N  0.62549503  0.16111005  0.07130477    -0.38200
N1314       N  0.58775851  0.06003671  0.90656515    -0.38200
N1315       N  0.55555042  0.09410130  0.06930011    -0.37600
N1316       N  0.65978911  0.12383761  0.90545408    -0.37600
C1317       C  0.00568771  0.41407774  0.91903678    -0.04300
C1318       C  0.98211837  0.38867744  0.91953356    -0.01400
C1319       C  0.98357188  0.36294957  0.89637550     0.03600
C1320       C  0.00853168  0.36248193  0.87223981    -0.04300
C1321       C  0.03252133  0.38777152  0.87224458    -0.01400
C1322       C  0.03064095  0.41373913  0.89511593     0.03600
C1323       C  0.95606741  0.38928860  0.94374367     0.38200
C1324       C  0.05912105  0.38757891  0.84863873     0.38200
C1325       C  0.05411152  0.44055539  0.89371549     0.36600
C1326       C  0.96000597  0.33629736  0.89835777     0.36600
N1327       N  0.07241598  0.46225522  0.89238750    -0.38200
N1328       N  0.94124259  0.31501940  0.90002158    -0.38200
N1329       N  0.08067028  0.38740210  0.83019512    -0.37600
N1330       N  0.93540867  0.38984146  0.96316196    -0.37600
C1331       C  0.00216013  0.42150478  0.08812847    -0.04300
C1332       C  0.02853699  0.41756269  0.10991245    -0.01400
C1333       C  0.02753887  0.39285547  0.13389523     0.03600
C1334       C  0.00015536  0.37121167  0.13591618    -0.04300
C1335       C  0.97380128  0.37520820  0.11353447    -0.01400
C1336       C  0.97476836  0.40043112  0.09003746     0.03600
C1337       C  0.05723501  0.43849913  0.10690649     0.38200
C1338       C  0.94623222  0.35259637  0.11326281     0.38200
C1339       C  0.94778433  0.40438662  0.06721943     0.36600
C1340       C  0.05493808  0.39021966  0.15641513     0.36600
N1341       N  0.92635610  0.40750058  0.04893334    -0.38200
N1342       N  0.07700357  0.38809446  0.17409605    -0.38200
N1343       N  0.92417802  0.33465738  0.11284566    -0.37600
N1344       N  0.08011193  0.45514459  0.10429946    -0.37600
C1345       C  0.99932832  0.58342648  0.91152781    -0.04300
C1346       C  0.97160402  0.60353559  0.90774164    -0.01400
C1347       C  0.97053358  0.62702431  0.88252032     0.03600
C1348       C  0.99726539  0.63038405  0.86042037    -0.04300
C1349       C  0.02431768  0.60876417  0.86338130    -0.01400
C1350       C  0.02546006  0.58575095  0.88905937     0.03600
C1351       C  0.94408374  0.59992168  0.92998951     0.38200
C1352       C  0.05063357  0.60922036  0.83945932     0.38200
C1353       C  0.05375709  0.56457672  0.89266277     0.36600
C1354       C  0.94205076  0.64811308  0.88022230     0.36600
N1355       N  0.07630050  0.54768775  0.89562545    -0.38200
N1356       N  0.91917279  0.66472492  0.87839985    -0.38200
N1357       N  0.07161534  0.60942184  0.82037510    -0.37600
N1358       N  0.92221146  0.59689947  0.94778152    -0.37600
C1359       C  0.00200130  0.59300273  0.08216311    -0.04300
C1360       C  0.97661206  0.61651341  0.08140940    -0.01400
C1361       C  0.97588907  0.64228384  0.10461411     0.03600
C1362       C  0.99970159  0.64393163  0.12982351    -0.04300
C1363       C  0.02435043  0.61964633  0.13126302    -0.01400
C1364       C  0.02598146  0.59486339  0.10709720     0.03600
C1365       C  0.95090467  0.61393705  0.05694609     0.38200
C1366       C  0.04717083  0.61911586  0.15853074     0.38200
C1367       C  0.05243110  0.57117812  0.10794841     0.36600
C1368       C  0.95103428  0.66752269  0.10187562     0.36600
N1369       N  0.07350670  0.55226869  0.10872966    -0.38200
N1370       N  0.93123903  0.68766356  0.09965355    -0.38200
N1371       N  0.06509956  0.61867949  0.18048994    -0.37600
N1372       N  0.93042511  0.61186627  0.03742128    -0.37600
C1373       C  0.36536501  0.50218172  0.13742718    -0.04300
C1374       C  0.39262353  0.52378067  0.13782538    -0.01400
C1375       C  0.41640371  0.52212780  0.11277356     0.03600
C1376       C  0.41421971  0.49773376  0.08816413    -0.04300
C1377       C  0.38748922  0.47562930  0.08826511    -0.01400
C1378       C  0.36240935  0.47889835  0.11174405     0.03600
C1379       C  0.39670385  0.54743847  0.16418737     0.38200
C1380       C  0.38576750  0.44938259  0.06418503     0.38200
C1381       C  0.33257186  0.45970100  0.10804974     0.36600
C1382       C  0.44291936  0.54591510  0.11202850     0.36600
N1383       N  0.30853791  0.44483768  0.10491756    -0.38200
N1384       N  0.46403645  0.56491811  0.11139040    -0.38200
N1385       N  0.38435189  0.42832635  0.04512693    -0.37600
N1386       N  0.40005996  0.56634190  0.18516773    -0.37600
C1387       C  0.63589856  0.49944721  0.12852222    -0.04300
C1388       C  0.63453484  0.47262276  0.10617134    -0.01400
C1389       C  0.60835052  0.46962826  0.08379336     0.03600
C1390       C  0.58411955  0.49412128  0.08220069    -0.04300
C1391       C  0.58558264  0.52112683  0.10387792    -0.01400
C1392       C  0.61089534  0.52351992  0.12734064     0.03600
C1393       C  0.66055274  0.44841869  0.10516006     0.38200
C1394       C  0.56112362  0.54679934  0.10167792     0.38200
C1395       C  0.61021707  0.55036833  0.15075399     0.36600
C1396       C  0.60637029  0.44132464  0.06215827     0.36600
N1397       N  0.60921296  0.57195479  0.16922487    -0.38200
N1398       N  0.60479706  0.41879253  0.04487872    -0.38200
N1399       N  0.54162759  0.56725057  0.09979497    -0.37600
N1400       N  0.68124385  0.42907520  0.10427282    -0.37600
C1401       C  0.36377476  0.50479206  0.86522115    -0.04300
C1402       C  0.36449523  0.47744262  0.88669339    -0.01400
C1403       C  0.38724842  0.47643186  0.91264165     0.03600
C1404       C  0.40922897  0.50265235  0.91766837    -0.04300
C1405       C  0.40830298  0.53012185  0.89696095    -0.01400
C1406       C  0.38594814  0.53117186  0.87070370     0.03600
C1407       C  0.34203535  0.45005114  0.88240445     0.38200
C1408       C  0.43116347  0.55701168  0.90223809     0.38200
C1409       C  0.38741194  0.55882083  0.84855026     0.36600
C1410       C  0.38883087  0.44790119  0.93370100     0.36600
N1411       N  0.38902268  0.58111298  0.83121138    -0.38200
N1412       N  0.39022373  0.42519747  0.95051711    -0.38200
N1413       N  0.44948717  0.57836165  0.90636833    -0.37600
N1414       N  0.32442891  0.42797877  0.87895719    -0.37600
C1415       C  0.57857626  0.49542890  0.91081665    -0.04300
C1416       C  0.58749224  0.46642757  0.89425511    -0.01400
C1417       C  0.60896956  0.46770068  0.86724648     0.03600
C1418       C  0.62519030  0.49752583  0.85897249    -0.04300
C1419       C  0.61690506  0.52647036  0.87676163    -0.01400
C1420       C  0.59247884  0.52555483  0.90121097     0.03600
C1421       C  0.57415006  0.43516520  0.90482521     0.38200
C1422       C  0.63405287  0.55720612  0.87132727     0.38200
C1423       C  0.58166833  0.55573267  0.91678365     0.36600
C1424       C  0.61286423  0.43831042  0.84741984     0.36600
N1425       N  0.57289143  0.57975481  0.92912713    -0.38200
N1426       N  0.61565146  0.41486109  0.83158181    -0.38200
N1427       N  0.64776611  0.58176240  0.86734702    -0.37600
N1428       N  0.56352113  0.41023872  0.91320479    -0.37600
C1429       C  0.12621996  0.63609043  0.51033373    -0.04300
C1430       C  0.10344761  0.63411508  0.53662548    -0.01400
C1431       C  0.07938850  0.60922157  0.53694714     0.03600
C1432       C  0.07781780  0.58608765  0.51127719    -0.04300
C1433       C  0.10105610  0.58708013  0.48578487    -0.01400
C1434       C  0.12523370  0.61179083  0.48530707     0.03600
C1435       C  0.10386697  0.65791150  0.56317337     0.38200
C1436       C  0.09983978  0.56275106  0.45972601     0.38200
C1437       C  0.14946978  0.61140819  0.45925631     0.36600
C1438       C  0.05584566  0.60747125  0.56356729     0.36600
N1439       N  0.16867210  0.61112551  0.43838753    -0.38200
N1440       N  0.03686610  0.60599507  0.58457784    -0.38200
N1441       N  0.09900113  0.54333138  0.43898260    -0.37600
N1442       N  0.10413833  0.67658765  0.58461348    -0.37600
C1443       C  0.07864228  0.41697910  0.50733905    -0.04300
C1444       C  0.10243186  0.41802618  0.48231792    -0.01400
C1445       C  0.12766010  0.39449538  0.48111683     0.03600
C1446       C  0.12907626  0.36918185  0.50474138    -0.04300
C1447       C  0.10484811  0.36801589  0.52964099    -0.01400
C1448       C  0.07991510  0.39193743  0.53100603     0.03600
C1449       C  0.10068404  0.44329080  0.45748262     0.38200
C1450       C  0.10478319  0.34166886  0.55338886     0.38200
C1451       C  0.05549927  0.39085244  0.55683011     0.36600
C1452       C  0.15259066  0.39722202  0.45593312     0.36600
N1453       N  0.03596761  0.38995593  0.57736420    -0.38200
N1454       N  0.17225794  0.39965071  0.43566156    -0.38200
N1455       N  0.10468841  0.32067804  0.57235146    -0.37600
N1456       N  0.09920678  0.46345539  0.43772038    -0.37600
C1457       C  0.85868169  0.36735859  0.49620547    -0.04300
C1458       C  0.88317420  0.36599788  0.52082663    -0.01400
C1459       C  0.90772270  0.39030499  0.52258619     0.03600
C1460       C  0.90839454  0.41598187  0.49955121    -0.04300
C1461       C  0.88496677  0.41667982  0.47416820    -0.01400
C1462       C  0.86015933  0.39259333  0.47247901     0.03600
C1463       C  0.88416242  0.33888288  0.54372168     0.38200
C1464       C  0.88674094  0.44209093  0.44944524     0.38200
C1465       C  0.83611803  0.39436825  0.44637166     0.36600
C1466       C  0.93269256  0.38852728  0.54786791     0.36600
N1467       N  0.81733616  0.39595133  0.42520340    -0.38200
N1468       N  0.95286262  0.38675155  0.56770689    -0.38200
N1469       N  0.88826758  0.46244638  0.42986485    -0.37600
N1470       N  0.88500060  0.31727898  0.56196521    -0.37600
C1471       C  0.85767614  0.63569594  0.50261635    -0.04300
C1472       C  0.86109999  0.61295527  0.47640759    -0.01400
C1473       C  0.88626902  0.58932283  0.47688303     0.03600
C1474       C  0.90688808  0.58650748  0.50440266    -0.04300
C1475       C  0.90258591  0.60783332  0.53131854    -0.01400
C1476       C  0.87886600  0.63295029  0.53012157     0.03600
C1477       C  0.83791557  0.61261943  0.44944454     0.38200
C1478       C  0.92237911  0.60350694  0.56050842     0.38200
C1479       C  0.87726313  0.65634653  0.55697963     0.36600
C1480       C  0.89119687  0.56796449  0.44880154     0.36600
N1481       N  0.87616555  0.67493829  0.57846479    -0.38200
N1482       N  0.89523225  0.55106893  0.42632116    -0.38200
N1483       N  0.93802019  0.59976810  0.58382707    -0.37600
N1484       N  0.81926795  0.61223015  0.42808106    -0.37600
C1485       C  0.50860508  0.09384109  0.57868575    -0.04300
C1486       C  0.48302159  0.09454466  0.60195863    -0.01400
C1487       C  0.48268259  0.11863445  0.62685537     0.03600
C1488       C  0.50757787  0.14295166  0.62823931    -0.04300
C1489       C  0.53246851  0.14297709  0.60401599    -0.01400
C1490       C  0.53310924  0.11839203  0.57956040     0.03600
C1491       C  0.45686560  0.07036570  0.60015447     0.38200
C1492       C  0.55713286  0.16872479  0.60366515     0.38200
C1493       C  0.55908444  0.11835307  0.55527769     0.36600
C1494       C  0.45728514  0.11732320  0.65171583     0.36600
N1495       N  0.57967484  0.11854289  0.53577965    -0.38200
N1496       N  0.43698962  0.11616754  0.67148991    -0.38200
N1497       N  0.57678404  0.18926618  0.60345097    -0.37600
N1498       N  0.43609828  0.05101548  0.59859731    -0.37600
C1499       C  0.50341053  0.13245348  0.35843142    -0.04300
C1500       C  0.47914281  0.10766491  0.36077754    -0.01400
C1501       C  0.48093214  0.08394518  0.38575031     0.03600
C1502       C  0.50761986  0.08393846  0.40775461    -0.04300
C1503       C  0.53290426  0.10726484  0.40421961    -0.01400
C1504       C  0.53048834  0.13192616  0.38031222     0.03600
C1505       C  0.45299396  0.10559707  0.33675761     0.38200
C1506       C  0.56165355  0.10559403  0.42510190     0.38200
C1507       C  0.55556996  0.15724505  0.37920824     0.36600
C1508       C  0.45513445  0.05961101  0.38899556     0.36600
N1509       N  0.57563966  0.17735991  0.37838531    -0.38200
N1510       N  0.43455344  0.04020183  0.39159024    -0.38200
N1511       N  0.58465675  0.10405481  0.44160746    -0.37600
N1512       N  0.43227968  0.10375832  0.31745718    -0.37600
C1513       C  0.50522368  0.91481159  0.41624808    -0.04300
C1514       C  0.48093063  0.91533006  0.39159673    -0.01400
C1515       C  0.48026695  0.89088815  0.36706570     0.03600
C1516       C  0.50295314  0.86472047  0.36777755    -0.04300
C1517       C  0.52740413  0.86431857  0.39244875    -0.01400
C1518       C  0.52884290  0.88958472  0.41617380     0.03600
C1519       C  0.45667335  0.94127201  0.39128907     0.38200
C1520       C  0.55092748  0.83774166  0.39390191     0.38200
C1521       C  0.55510610  0.89008958  0.44015389     0.36600
C1522       C  0.45735368  0.89384002  0.34004813     0.36600
N1523       N  0.57606416  0.89066634  0.45925503    -0.38200
N1524       N  0.43934133  0.89633598  0.31831167    -0.38200
N1525       N  0.56979630  0.81664367  0.39509454    -0.37600
N1526       N  0.43738542  0.96200787  0.39092724    -0.37600
C1527       C  0.50401909  0.92362352  0.58705197    -0.04300
C1528       C  0.52923499  0.90027712  0.58992286    -0.01400
C1529       C  0.52836880  0.87663909  0.61505822     0.03600
C1530       C  0.50165615  0.87551458  0.63745647    -0.04300
C1531       C  0.47659591  0.89953260  0.63466356    -0.01400
C1532       C  0.47791931  0.92340250  0.60969137     0.03600
C1533       C  0.55609495  0.90040476  0.56657688     0.38200
C1534       C  0.44966026  0.90056375  0.65786970     0.38200
C1535       C  0.45210336  0.94764685  0.60694975     0.36600
C1536       C  0.55512810  0.85339776  0.61705257     0.36600
N1537       N  0.43161135  0.96707204  0.60474445    -0.38200
N1538       N  0.57699285  0.83544308  0.61838845    -0.38200
N1539       N  0.42805355  0.90145597  0.67622905    -0.37600
N1540       N  0.57733095  0.90033558  0.54778437    -0.37600
loop_ 
_geom_bond_atom_site_label_1 
_geom_bond_atom_site_label_2 
_geom_bond_distance 
_geom_bond_site_symmetry_2 
_ccdc_geom_bond_type 
N1            C6   1.351   1_545  A
N1            C5   1.351       .  A
N1           H33   1.040       .  S
N2            C9   1.351       .  A
N2           C10   1.350       .  A
N3            C8   1.353   1_545  A
N3            C7   1.353       .  A
N3           H34   1.039       .  S
N4           C11   1.351       .  A
N4           C12   1.351       .  A
C5           C13   1.386       .  A
C5           C21   1.411       .  A
C6           C22   1.414       .  A
C6           C14   1.388       .  A
C7           C15   1.387       .  A
C7           C24   1.417       .  A
C8           C23   1.416       .  A
C8           C16   1.387       .  A
C9           C21   1.412       .  A
C9           C17   1.386       .  A
C10          C24   1.412       .  A
C10          C18   1.386       .  A
C11          C19   1.386       .  A
C11          C22   1.414       .  A
C12          C20   1.386       .  A
C12          C23   1.414       .  A
C13          C14   1.377   1_545  A
C13          H25   1.082       .  S
C14          H26   1.082       .  S
C15          C16   1.378   1_545  A
C15          H27   1.082       .  S
C16          H28   1.082       .  S
C17          C18   1.374       .  A
C17          H29   1.082       .  S
C18          H30   1.082       .  S
C19          C20   1.375       .  A
C19          H31   1.082       .  S
C20          H32   1.082       .  S
C21        C1502   1.495       .  S
C22        C1513   1.498       .  S
C23        C1527   1.500       .  S
C24        C1485   1.499       .  S
N35          C40   1.352       .  A
N35          C39   1.354       .  A
N35          H67   1.030       .  S
N36          C43   1.350       .  A
N36          C44   1.349   1_655  A
N37          C42   1.353       .  A
N37          C41   1.350       .  A
N37          H68   1.030       .  S
N38          C45   1.347       .  A
N38          C46   1.350   1_655  A
C39          C47   1.386       .  A
C39          C55   1.413       .  A
C40          C56   1.415       .  A
C40          C48   1.387       .  A
C41          C49   1.387       .  A
C41          C58   1.412       .  A
C42          C57   1.412       .  A
C42          C50   1.386       .  A
C43          C55   1.411       .  A
C43          C51   1.385       .  A
C44          C58   1.412       .  A
C44          C52   1.387       .  A
C45          C53   1.387       .  A
C45          C56   1.409       .  A
C46          C54   1.385       .  A
C46          C57   1.408       .  A
C47          C48   1.378       .  A
C47          H59   1.082       .  S
C48          H60   1.082       .  S
C49          C50   1.377       .  A
C49          H61   1.082       .  S
C50          H62   1.082       .  S
C51          C52   1.374   1_655  A
C51          H63   1.082       .  S
C52          H64   1.082       .  S
C53          C54   1.373   1_655  A
C53          H65   1.082       .  S
C54          H66   1.082       .  S
C55        C1474   1.496       .  S
C56        C1460   1.493       .  S
C57        C1443   1.496       .  S
C58        C1432   1.490       .  S
N69          C74   1.352       .  A
N69          C73   1.351       .  A
N69         H101   1.038       .  S
N70          C77   1.349   1_554  A
N70          C78   1.350       .  A
N71          C76   1.351       .  A
N71          C75   1.353       .  A
N71         H102   1.039       .  S
N72          C79   1.352       .  A
N72          C80   1.351   1_556  A
C73          C81   1.386       .  A
C73          C89   1.412       .  A
C74          C90   1.414       .  A
C74          C82   1.388       .  A
C75          C83   1.387       .  A
C75          C92   1.416       .  A
C76          C91   1.415       .  A
C76          C84   1.387       .  A
C77          C89   1.409       .  A
C77          C85   1.385       .  A
C78          C92   1.413       .  A
C78          C86   1.387       .  A
C79          C87   1.386       .  A
C79          C90   1.414       .  A
C80          C88   1.386       .  A
C80          C91   1.414       .  A
C81          C82   1.372       .  A
C81          H93   1.082       .  S
C82          H94   1.081       .  S
C83          C84   1.378       .  A
C83          H95   1.082       .  S
C84          H96   1.082       .  S
C85          C86   1.373   1_556  A
C85          H97   1.082       .  S
C86          H98   1.082       .  S
C87          C88   1.372   1_556  A
C87          H99   1.082       .  S
C88         H100   1.082       .  S
C89        C1404   1.490       .  S
C90        C1415   1.496       .  S
C91        C1390   1.496       .  S
C92        C1376   1.498       .  S
N103        C108   1.353   1_455  A
N103        C107   1.353   1_455  A
N103        H135   1.039       .  S
N104        C111   1.351   1_556  A
N104        C112   1.351       .  A
N105        C110   1.352   1_455  A
N105        C109   1.350   1_455  A
N105        H136   1.040       .  S
N106        C113   1.348       .  A
N106        C114   1.349   1_554  A
C107        C115   1.387       .  A
C107        C123   1.417   1_655  A
C108        C124   1.415   1_655  A
C108        C116   1.386       .  A
C109        C117   1.387       .  A
C109        C126   1.411   1_655  A
C110        C125   1.411   1_655  A
C110        C118   1.386       .  A
C111        C123   1.415       .  A
C111        C119   1.387       .  A
C112        C126   1.413       .  A
C112        C120   1.385       .  A
C113        C121   1.386       .  A
C113        C124   1.408       .  A
C114        C122   1.386       .  A
C114        C125   1.410       .  A
C115        C116   1.377       .  A
C115        H127   1.082       .  S
C116        H128   1.082       .  S
C117        C118   1.377       .  A
C117        H129   1.082       .  S
C118        H130   1.082       .  S
C119        C120   1.375   1_554  A
C119        H131   1.082       .  S
C120        H132   1.082       .  S
C121        C122   1.373   1_554  A
C121        H133   1.082       .  S
C122        H134   1.082       .  S
C123       C1359   1.501       .  S
C124       C1331   1.492       .  S
C125       C1317   1.495       .  S
C126       C1345   1.495   1_455  S
N137        C142   1.354       .  A
N137        C141   1.354   1_565  A
N137        H169   1.039       .  S
N138        C145   1.351       .  A
N138        C146   1.351       .  A
N139        C144   1.352   1_545  A
N139        C143   1.352       .  A
N139        H170   1.039   1_545  S
N140        C147   1.350       .  A
N140        C148   1.350       .  A
C141        C149   1.387   1_556  A
C141        C157   1.417       .  A
C142        C158   1.418       .  A
C142        C150   1.387   1_556  A
C143        C151   1.388   1_556  A
C143        C160   1.414       .  A
C144        C159   1.413       .  A
C144        C152   1.386   1_556  A
C145        C157   1.412       .  A
C145        C153   1.386       .  A
C146        C160   1.413       .  A
C146        C154   1.386       .  A
C147        C155   1.387       .  A
C147        C158   1.412       .  A
C148        C156   1.386       .  A
C148        C159   1.410       .  A
C149        C150   1.378   1_545  A
C149        H161   1.082       .  S
C150        H162   1.082       .  S
C151        C152   1.376   1_545  A
C151        H163   1.082       .  S
C152        H164   1.082       .  S
C153        C154   1.374       .  A
C153        H165   1.082       .  S
C154        H166   1.082       .  S
C155        C156   1.372       .  A
C155        H167   1.082       .  S
C156        H168   1.082       .  S
C157       C1306   1.497       .  S
C158       C1289   1.501       .  S
C159       C1264   1.494       .  S
C160       C1278   1.496       .  S
O171        C187   1.277       .  A
O171       Zn177   2.047       .  S
C172       C1219   1.479       .  S
C172        O188   1.276       .  A
C172        O185   1.276       .  A
O173        C186   1.274       .  A
O173       Cd180   2.067       .  S
O174        C192   1.277       .  A
O174       Cd183   2.089       .  S
O175        C189   1.276       .  A
O175       Cd179   2.074       .  S
O176        C187   1.276       .  A
O176       Cd179   2.087       .  S
Zn177       O188   2.032       .  S
Zn177       O190   2.037       .  S
Zn177       O182   1.959       .  S
O178        C189   1.278       .  A
O178       Cd183   2.094       .  S
Cd179       O181   2.076       .  S
Cd179       O182   2.005       .  S
Cd180       O184   2.055       .  S
Cd180       O193   2.070       .  S
Cd180       O182   2.002       .  S
O181        C191   1.276       .  A
O182       Cd183   2.008       .  S
Cd183       O185   2.070       .  S
O184        C191   1.273       .  A
C186       C1191   1.498       .  S
C186        O190   1.276       .  A
C187       C1247   1.490       .  S
C189       C1233   1.500       .  S
C191       C1177   1.487       .  S
C192       C1205   1.501       .  S
C192        O193   1.273       .  A
O194        C210   1.277       .  A
O194       Zn200   2.039       .  S
C195       C1163   1.499       .  S
C195        O211   1.277       .  A
C195        O208   1.277       .  A
O196        C209   1.275       .  A
O196       Cd203   2.070       .  S
O197        C215   1.277       .  A
O197       Cd206   2.085       .  S
O198        C212   1.274       .  A
O198       Cd202   2.074       .  S
O199        C210   1.278       .  A
O199       Cd202   2.087       .  S
Zn200       O211   2.033       .  S
Zn200       O213   2.041       .  S
Zn200       O205   1.958       .  S
O201        C212   1.277       .  A
O201       Cd206   2.088       .  S
Cd202       O204   2.081       .  S
Cd202       O205   2.007       .  S
Cd203       O207   2.084       .  S
Cd203       O216   2.067       .  S
Cd203       O205   2.008       .  S
O204        C214   1.277       .  A
O205       Cd206   2.011       .  S
Cd206       O208   2.089       .  S
O207        C214   1.276       .  A
C209       C1093   1.500       .  S
C209        O213   1.277       .  A
C210       C1121   1.499       .  S
C212       C1149   1.483       .  S
C214       C1135   1.503       .  S
C215       C1107   1.494       .  S
C215        O216   1.274       .  A
O217        C233   1.272       .  A
O217       Zn223   2.012       .  S
C218       C1065   1.501       .  S
C218        O234   1.275       .  A
C218        O231   1.277       .  A
O219        C232   1.275       .  A
O219       Cd226   2.079       .  S
O220        C238   1.277       .  A
O220       Cd229   2.083       .  S
O221        C235   1.279       .  A
O221       Cd225   2.102       .  S
O222        C233   1.277       .  A
O222       Cd225   2.087       .  S
Zn223       O234   2.019       .  S
Zn223       O236   2.017       .  S
Zn223       O228   1.950       .  S
O224        C235   1.276       .  A
O224       Cd229   2.074       .  S
Cd225       O227   2.093       .  S
Cd225       O228   2.017       .  S
Cd226       O230   2.067       .  S
Cd226       O239   2.091       .  S
Cd226       O228   2.009       .  S
O227        C237   1.278       .  A
O228       Cd229   2.006       .  S
Cd229       O231   2.095       .  S
O230        C237   1.274       .  A
C232       C1051   1.497       .  S
C232        O236   1.274       .  A
C233       C1040   1.480       .  S
C235       C1079   1.491       .  S
C237       C1009   1.498       .  S
C238       C1023   1.492       .  S
C238        O239   1.277       .  A
O240        C256   1.279       .  A
O240       Zn246   2.056       .  S
C241        C939   1.491       .  S
C241        O257   1.280       .  A
C241        O254   1.275       .  A
O242        C255   1.275       .  A
O242       Cd249   2.061       .  S
O243        C261   1.276       .  A
O243       Cd252   2.082       .  S
O244        C258   1.272       .  A
O244       Cd248   2.052       .  S
O245        C256   1.271       .  A
O245       Cd248   2.050       .  S
Zn246       O257   2.052       .  S
Zn246       O259   2.054       .  S
Zn246       O251   1.955       .  S
O247        C258   1.277       .  A
O247       Cd252   2.081       .  S
Cd248       O250   2.076       .  S
Cd248       O251   1.997       .  S
Cd249       O253   2.065       .  S
Cd249       O262   2.074       .  S
Cd249       O251   1.994       .  S
O250        C260   1.275       .  A
O251       Cd252   2.006       .  S
Cd252       O254   2.071       .  S
O253        C260   1.273       .  A
C255        C953   1.501       .  S
C255        O259   1.280       .  A
C256        C981   1.498       .  S
C258        C925   1.499       .  S
C260        C967   1.490       .  S
C261        C995   1.513       .  S
C261        O262   1.275       .  A
O263        C279   1.276       .  A
O263       Zn269   2.034       .  S
C264        C911   1.477       .  S
C264        O280   1.275       .  A
C264        O277   1.273       .  A
O265        C278   1.277       .  A
O265       Cd272   2.087       .  S
O266        C284   1.273       .  A
O266       Cd275   2.057       .  S
O267        C281   1.276       .  A
O267       Cd271   2.084       .  S
O268        C279   1.275       .  A
O268       Cd271   2.068       .  S
Zn269       O280   2.028       .  S
Zn269       O282   2.031       .  S
Zn269       O274   1.952       .  S
O270        C281   1.274       .  A
O270       Cd275   2.065       .  S
Cd271       O273   2.069       .  S
Cd271       O274   2.000       .  S
Cd272       O276   2.087       .  S
Cd272       O285   2.107       .  S
Cd272       O274   2.013       .  S
O273        C283   1.276       .  A
O274       Cd275   1.994       .  S
Cd275       O277   2.064       .  S
O276        C283   1.278       .  A
C278        C855   1.505       .  S
C278        O282   1.276       .  A
C279        C869   1.497       .  S
C281        C897   1.498       .  S
C283        C883   1.511       .  S
C284        C844   1.505       .  S
C284        O285   1.280       .  A
O286        C302   1.277       .  A
O286       Zn292   2.037       .  S
C287        C827   1.485       .  S
C287        O303   1.276       .  A
C287        O300   1.274       .  A
O288        C301   1.278       .  A
O288       Cd295   2.090       .  S
O289        C307   1.277       .  A
O289       Cd298   2.076       .  S
O290        C304   1.273       .  A
O290       Cd294   2.059       .  S
O291        C302   1.272       .  A
O291       Cd294   2.068       .  S
Zn292       O303   2.041       .  S
Zn292       O305   2.028       .  S
Zn292       O297   1.957       .  S
O293        C304   1.274       .  A
O293       Cd298   2.081       .  S
Cd294       O296   2.059       .  S
Cd294       O297   1.995       .  S
Cd295       O299   2.094       .  S
Cd295       O308   2.103       .  S
Cd295       O297   2.016       .  S
O296        C306   1.275       .  A
O297       Cd298   2.000       .  S
Cd298       O300   2.056       .  S
O299        C306   1.278       .  A
C301        C771   1.503       .  S
C301        O305   1.276       .  A
C302        C785   1.508       .  S
C304        C799   1.497       .  S
C306        C813   1.490       .  S
C307        C757   1.494       .  S
C307        O308   1.280       .  A
O309        C325   1.273       .  A
O309       Zn315   2.015       .  S
C310        C715   1.481       .  S
C310        O326   1.273       .  A
C310        O323   1.275       .  A
O311        C324   1.274       .  A
O311       Cd318   2.074       .  S
O312        C330   1.274       .  A
O312       Cd321   2.066       .  S
O313        C327   1.277       .  A
O313       Cd317   2.087       .  S
O314        C325   1.278       .  A
O314       Cd317   2.094       .  S
Zn315       O326   2.019       .  S
Zn315       O328   2.015       .  S
Zn315       O320   1.946       .  S
O316        C327   1.273       .  A
O316       Cd321   2.068       .  S
Cd317       O319   2.093       .  S
Cd317       O320   2.005       .  S
Cd318       O322   2.080       .  S
Cd318       O331   2.077       .  S
Cd318       O320   2.009       .  S
O319        C329   1.279       .  A
O320       Cd321   1.999       .  S
Cd321       O323   2.074       .  S
O322        C329   1.277       .  A
C324        C729   1.512       .  S
C324        O328   1.273       .  A
C325        C704   1.487       .  S
C327        C746   1.485       .  S
C329        C687   1.496       .  S
C330        C673   1.503       .  S
C330        O331   1.275       .  A
N332        C337   1.350   1_645  A
N332        C336   1.351   1_545  A
N332        H364   1.040   1_655  S
N333        C340   1.348       .  A
N333        C341   1.348       .  A
N334        C339   1.352   1_645  A
N334        C338   1.353       .  A
N334        H365   1.040       .  S
N335        C342   1.351       .  A
N335        C343   1.350       .  A
C336        C344   1.387       .  A
C336        C352   1.413   1_565  A
C337        C353   1.411       .  A
C337        C345   1.386       .  A
C338        C346   1.386   1_545  A
C338        C355   1.413       .  A
C339        C354   1.415   1_565  A
C339        C347   1.387       .  A
C340        C352   1.410       .  A
C340        C348   1.387       .  A
C341        C355   1.408       .  A
C341        C349   1.386       .  A
C342        C350   1.385       .  A
C342        C353   1.411   1_545  A
C343        C351   1.387       .  A
C343        C354   1.414       .  A
C344        C345   1.378   1_655  A
C344        H356   1.082       .  S
C345        H357   1.082       .  S
C346        C347   1.377   1_655  A
C346        H358   1.082       .  S
C347        H359   1.082       .  S
C348        C349   1.375       .  A
C348        H360   1.082       .  S
C349        H361   1.082       .  S
C350        C351   1.376       .  A
C350        H362   1.082       .  S
C351        H363   1.082       .  S
C352        C648   1.493       .  S
C353        C659   1.494       .  S
C354        C631   1.501       .  S
C355        C620   1.493       .  S
C366        N367   1.360       .  A
C366        N371   1.361       .  A
C366        C606   1.482       .  S
N367        C368   1.358       .  A
C368        N369   1.356   1_545  A
C368        C634   1.496       .  S
N369        C370   1.357       .  A
C370        N371   1.361   1_565  A
C370        C830   1.484       .  S
O372        C388   1.278       .  A
O372       Zn378   2.056       .  S
C373        C589   1.495       .  S
C373        O389   1.277       .  A
C373        O386   1.274       .  A
O374        C387   1.277       .  A
O374       Cd381   2.076       .  S
O375        C393   1.276       .  A
O375       Cd384   2.084       .  S
O376        C390   1.275       .  A
O376       Cd380   2.076       .  S
O377        C388   1.275       .  A
O377       Cd380   2.067       .  S
Zn378       O389   2.034       .  S
Zn378       O391   2.035       .  S
Zn378       O383   1.963       .  S
O379        C390   1.275       .  A
O379       Cd384   2.072       .  S
Cd380       O382   2.068       .  S
Cd380       O383   2.002       .  S
Cd381       O385   2.085       .  S
Cd381       O394   2.086       .  S
Cd381       O383   2.006       .  S
O382        C392   1.274       .  A
O383       Cd384   2.006       .  S
Cd384       O386   2.070       .  S
O385        C392   1.276       .  A
C387        C550   1.491       .  S
C387        O391   1.277       .  A
C388        C575   1.499       .  S
C390        C603   1.484       .  S
C392        C564   1.489       .  S
C393        C536   1.511       .  S
C393        O394   1.277       .  A
C395        N396   1.363   1_455  A
C395        N400   1.355       .  A
C395        C592   1.490       .  S
N396        C397   1.363       .  A
C397        N398   1.358       .  A
C397        C743   1.482       .  S
N398        C399   1.358       .  A
C399        N400   1.354   1_655  A
C399       C1334   1.499   1_655  S
C401        N402   1.354       .  A
C401        N406   1.362   1_556  A
C401        C998   1.482       .  S
N402        C403   1.354       .  A
C403        N404   1.359   1_556  A
C403       C1275   1.496       .  S
N404        C405   1.361       .  A
C405        N406   1.365       .  A
C405        C578   1.497       .  S
C407        N408   1.353       .  A
C407        N412   1.360       .  A
C407        C732   1.481       .  S
N408        C409   1.353       .  A
C409        N410   1.360       .  A
C409       C1499   1.493       .  S
N410        C411   1.363       .  A
C411        N412   1.362       .  A
C411        C561   1.494       .  S
C413        N414   1.361   1_565  A
C413        N418   1.359       .  A
C413        C900   1.491       .  S
N414        C415   1.359       .  A
C415        N416   1.357       .  A
C415        C718   1.479       .  S
N416        C417   1.358       .  A
C417        N418   1.359   1_545  A
C417        C617   1.502       .  S
C419        N420   1.362       .  A
C419        N424   1.361       .  A
C419       C1068   1.493       .  S
N420        C421   1.360       .  A
C421        N422   1.360   1_556  A
C421       C1303   1.516       .  S
N422        C423   1.356       .  A
C423        N424   1.360   1_554  A
C423        C701   1.484       .  S
C425        N426   1.363       .  A
C425        N430   1.354       .  A
C425        C690   1.489       .  S
N426        C427   1.365       .  A
C427        N428   1.362       .  A
C427        C858   1.487       .  S
N428        C429   1.359       .  A
C429        N430   1.353       .  A
C429       C1387   1.498       .  S
C431        N432   1.357       .  A
C431        N436   1.363       .  A
C431        C676   1.479       .  S
N432        C433   1.355       .  A
C433        N434   1.355       .  A
C433       C1457   1.491       .  S
N434        C435   1.356       .  A
C435        N436   1.362       .  A
C435       C1012   1.485       .  S
C437        N438   1.355       .  A
C437        N442   1.365       .  A
C437        C547   1.490       .  S
N438        C439   1.351       .  A
C439        N440   1.352       .  A
C439       C1373   1.489       .  S
N440        C441   1.360       .  A
C441        N442   1.368       .  A
C441        C816   1.510       .  S
C443        N444   1.360       .  A
C443        N448   1.362   1_455  A
C443        C802   1.498       .  S
N444        C445   1.357   1_455  A
C445        N446   1.355       .  A
C445       C1362   1.491       .  S
N446        C447   1.356       .  A
C447        N448   1.361       .  A
C447        C914   1.479       .  S
C449        N450   1.364   1_556  A
C449        N454   1.355       .  A
C449       C1152   1.482       .  S
N450        C451   1.366       .  A
C451        N452   1.358       .  A
C451        C788   1.505       .  S
N452        C453   1.354       .  A
C453        N454   1.355   1_554  A
C453       C1261   1.491       .  S
C455        N456   1.359       .  A
C455        N460   1.362       .  A
C455        C774   1.490       .  S
N456        C457   1.359       .  A
C457        N458   1.355       .  A
C457       C1516   1.491       .  S
N458        C459   1.356       .  A
C459        N460   1.361       .  A
C459        C886   1.479       .  S
C461        N462   1.355       .  A
C461        N466   1.367       .  A
C461       C1096   1.488       .  S
N462        C463   1.352       .  A
C463        N464   1.354       .  A
C463       C1429   1.495       .  S
N464        C465   1.358       .  A
C465        N466   1.369       .  A
C465        C760   1.516       .  S
C467        N468   1.358       .  A
C467        N472   1.361       .  A
C467       C1222   1.481       .  S
N468        C469   1.357       .  A
C469        N470   1.357   1_556  A
C469       C1292   1.495       .  S
N470        C471   1.358       .  A
C471        N472   1.362   1_554  A
C471        C872   1.490       .  S
C473        N474   1.362       .  A
C473        N478   1.357       .  A
C473        C533   1.484       .  S
N474        C475   1.363       .  A
C475        N476   1.360       .  A
C475        C984   1.497       .  S
N476        C477   1.357       .  A
C477        N478   1.358       .  A
C477       C1446   1.495       .  S
C479        N480   1.360       .  A
C479        N484   1.362   1_655  A
C479       C1082   1.494       .  S
N480        C481   1.358   1_655  A
C481        N482   1.356       .  A
C481       C1320   1.493       .  S
N482        C483   1.358       .  A
C483        N484   1.362       .  A
C483        C970   1.487       .  S
C485        N486   1.358       .  A
C485        N490   1.363       .  A
C485        C956   1.485       .  S
N486        C487   1.358       .  A
C487        N488   1.358   1_545  A
C487        C662   1.500       .  S
N488        C489   1.359       .  A
C489        N490   1.364   1_565  A
C489       C1166   1.495       .  S
C491        N492   1.359       .  A
C491        N496   1.365       .  A
C491       C1054   1.499       .  S
N492        C493   1.355       .  A
C493        N494   1.355       .  A
C493       C1488   1.493       .  S
N494        C495   1.357       .  A
C495        N496   1.364       .  A
C495        C942   1.487       .  S
C497        N498   1.355       .  A
C497        N502   1.363       .  A
C497        C928   1.491       .  S
N498        C499   1.353       .  A
C499        N500   1.357       .  A
C499       C1401   1.495       .  S
N500        C501   1.358       .  A
C501        N502   1.363       .  A
C501       C1138   1.482       .  S
C503        N504   1.365       .  A
C503        N508   1.360       .  A
C503       C1236   1.494       .  S
N504        C505   1.363   1_565  A
C505        N506   1.353       .  A
C505       C1037   1.478       .  S
N506        C507   1.352   1_545  A
C507        N508   1.357       .  A
C507        C645   1.487       .  S
C509        N510   1.365       .  A
C509        N514   1.358       .  A
C509       C1250   1.492       .  S
N510        C511   1.365   1_655  A
C511        N512   1.360       .  A
C511       C1124   1.495       .  S
N512        C513   1.358   1_455  A
C513        N514   1.357       .  A
C513       C1348   1.500       .  S
C515        N516   1.362       .  A
C515        N520   1.361       .  A
C515       C1110   1.490       .  S
N516        C517   1.361       .  A
C517        N518   1.358       .  A
C517       C1208   1.486       .  S
N518        C519   1.359       .  A
C519        N520   1.360       .  A
C519       C1530   1.506       .  S
C521        N522   1.366       .  A
C521        N526   1.358       .  A
C521       C1194   1.495       .  S
N522        C523   1.365       .  A
C523        N524   1.356       .  A
C523       C1026   1.509       .  S
N524        C525   1.353       .  A
C525        N526   1.355       .  A
C525       C1418   1.505       .  S
C527        N528   1.360       .  A
C527        N532   1.362       .  A
C527        C841   1.493       .  S
N528        C529   1.357       .  A
C529        N530   1.354       .  A
C529       C1471   1.499       .  S
N530        C531   1.357       .  A
C531        N532   1.361       .  A
C531       C1180   1.481       .  S
C533        C534   1.408       .  A
C533        C538   1.407       .  A
C534        C535   1.414       .  A
C534        C539   1.452       .  S
C535        C536   1.425       .  A
C535        C542   1.451       .  S
C536        C537   1.425       .  A
C537        C538   1.416       .  A
C537        C540   1.451       .  S
C538        C541   1.452       .  S
C539        N546   1.157       .  T
C540        N545   1.158       .  T
C541        N543   1.157       .  T
C542        N544   1.158       .  T
C547        C548   1.416       .  A
C547        C552   1.413       .  A
C548        C549   1.409       .  A
C548        C553   1.453       .  S
C549        C550   1.413       .  A
C549        C556   1.452       .  S
C550        C551   1.417       .  A
C551        C552   1.417       .  A
C551        C554   1.451       .  S
C552        C555   1.450       .  S
C553        N560   1.157       .  T
C554        N559   1.157       .  T
C555        N557   1.157       .  T
C556        N558   1.157       .  T
C561        C562   1.417       .  A
C561        C566   1.416       .  A
C562        C563   1.414       .  A
C562        C567   1.451       .  S
C563        C564   1.414       .  A
C563        C570   1.452       .  S
C564        C565   1.413       .  A
C565        C566   1.412       .  A
C565        C568   1.451       .  S
C566        C569   1.451       .  S
C567        N574   1.157       .  T
C568        N573   1.157       .  T
C569        N571   1.157       .  T
C570        N572   1.157       .  T
C575        C576   1.416       .  A
C575        C580   1.417       .  A
C576        C577   1.412       .  A
C576        C581   1.453       .  S
C577        C578   1.415       .  A
C577        C584   1.452       .  S
C578        C579   1.416       .  A
C579        C580   1.418       .  A
C579        C582   1.451       .  S
C580        C583   1.451       .  S
C581        N588   1.157       .  T
C582        N587   1.157       .  T
C583        N585   1.157       .  T
C584        N586   1.157       .  T
C589        C590   1.415       .  A
C589        C594   1.418       .  A
C590        C591   1.411       .  A
C590        C595   1.452       .  S
C591        C592   1.415       .  A
C591        C598   1.452       .  S
C592        C593   1.413       .  A
C593        C594   1.415       .  A
C593        C596   1.451       .  S
C594        C597   1.452       .  S
C595        N602   1.157       .  T
C596        N601   1.157       .  T
C597        N599   1.158       .  T
C598        N600   1.157       .  T
C603        C604   1.413       .  A
C603        C608   1.414       .  A
C604        C605   1.410       .  A
C604        C609   1.451       .  S
C605        C606   1.411       .  A
C605        C612   1.451       .  S
C606        C607   1.411       .  A
C607        C608   1.413       .  A
C607        C610   1.449       .  S
C608        C611   1.451       .  S
C609        N616   1.157       .  T
C610        N615   1.157       .  T
C611        N613   1.157       .  T
C612        N614   1.157       .  T
C617        C618   1.424       .  A
C617        C622   1.422   1_545  A
C618        C619   1.412       .  A
C618        C623   1.451       .  S
C619        C620   1.407       .  A
C619        C626   1.452       .  S
C620        C621   1.408   1_545  A
C621        C622   1.411       .  A
C621        C624   1.452       .  S
C622        C625   1.451       .  S
C623        N630   1.158       .  T
C624        N629   1.157       .  T
C625        N627   1.158       .  T
C626        N628   1.157       .  T
C631        C632   1.414       .  A
C631        C636   1.412   1_545  A
C632        C633   1.413       .  A
C632        C637   1.452       .  S
C633        C634   1.418       .  A
C633        C640   1.451       .  S
C634        C635   1.419   1_545  A
C635        C636   1.410       .  A
C635        C638   1.452       .  S
C636        C639   1.452       .  S
C637        N644   1.157       .  T
C638        N643   1.157       .  T
C639        N641   1.157       .  T
C640        N642   1.157       .  T
C645        C646   1.418   1_565  A
C645        C650   1.415       .  A
C646        C647   1.409       .  A
C646        C651   1.452       .  S
C647        C648   1.410       .  A
C647        C654   1.452       .  S
C648        C649   1.412   1_545  A
C649        C650   1.409       .  A
C649        C652   1.451       .  S
C650        C653   1.451       .  S
C651        N658   1.158       .  T
C652        N657   1.157       .  T
C653        N655   1.157       .  T
C654        N656   1.157       .  T
C659        C660   1.408       .  A
C659        C664   1.409   1_565  A
C660        C661   1.412       .  A
C660        C665   1.451       .  S
C661        C662   1.422   1_565  A
C661        C668   1.452       .  S
C662        C663   1.421       .  A
C663        C664   1.411       .  A
C663        C666   1.451       .  S
C664        C667   1.453       .  S
C665        N672   1.157       .  T
C666        N671   1.157       .  T
C667        N669   1.157       .  T
C668        N670   1.158       .  T
C673        C674   1.423       .  A
C673        C678   1.423       .  A
C674        C675   1.413       .  A
C674        C679   1.452       .  S
C675        C676   1.409       .  A
C675        C682   1.452       .  S
C676        C677   1.406       .  A
C677        C678   1.411       .  A
C677        C680   1.451       .  S
C678        C681   1.452       .  S
C679        N686   1.158       .  T
C680        N685   1.157       .  T
C681        N683   1.158       .  T
C682        N684   1.157       .  T
C687        C688   1.417       .  A
C687        C692   1.416       .  A
C688        C689   1.416       .  A
C688        C693   1.451       .  S
C689        C690   1.412       .  A
C689        C696   1.450       .  S
C690        C691   1.414       .  A
C691        C692   1.411       .  A
C691        C694   1.453       .  S
C692        C695   1.450       .  S
C693        N700   1.157       .  T
C694        N699   1.157       .  T
C695        N697   1.157       .  T
C696        N698   1.157       .  T
C701        C702   1.412       .  A
C701        C706   1.412       .  A
C702        C703   1.414       .  A
C702        C707   1.451       .  S
C703        C704   1.415       .  A
C703        C710   1.451       .  S
C704        C705   1.412       .  A
C705        C706   1.412       .  A
C705        C708   1.451       .  S
C706        C709   1.450       .  S
C707        N714   1.157       .  T
C708        N713   1.157       .  T
C709        N711   1.157       .  T
C710        N712   1.158       .  T
C715        C716   1.411       .  A
C715        C720   1.413       .  A
C716        C717   1.410       .  A
C716        C721   1.451       .  S
C717        C718   1.411       .  A
C717        C724   1.451       .  S
C718        C719   1.410       .  A
C719        C720   1.413       .  A
C719        C722   1.450       .  S
C720        C723   1.451       .  S
C721        N728   1.157       .  T
C722        N727   1.157       .  T
C723        N725   1.157       .  T
C724        N726   1.157       .  T
C729        C730   1.428       .  A
C729        C734   1.428       .  A
C730        C731   1.411       .  A
C730        C735   1.453       .  S
C731        C732   1.408       .  A
C731        C738   1.454       .  S
C732        C733   1.407       .  A
C733        C734   1.414       .  A
C733        C736   1.453       .  S
C734        C737   1.451       .  S
C735        N742   1.158       .  T
C736        N741   1.157       .  T
C737        N739   1.157       .  T
C738        N740   1.157       .  T
C743        C744   1.412       .  A
C743        C748   1.411       .  A
C744        C745   1.411       .  A
C744        C749   1.450       .  S
C745        C746   1.411       .  A
C745        C752   1.451       .  S
C746        C747   1.414       .  A
C747        C748   1.414       .  A
C747        C750   1.451       .  S
C748        C751   1.450       .  S
C749        N756   1.157       .  T
C750        N755   1.157       .  T
C751        N753   1.157       .  T
C752        N754   1.157       .  T
C757        C758   1.411       .  A
C757        C762   1.409       .  A
C758        C759   1.419       .  A
C758        C763   1.450       .  S
C759        C760   1.423       .  A
C759        C766   1.450       .  S
C760        C761   1.428       .  A
C761        C762   1.413       .  A
C761        C764   1.453       .  S
C762        C765   1.453       .  S
C763        N770   1.157       .  T
C764        N769   1.158       .  T
C765        N767   1.157       .  T
C766        N768   1.158       .  T
C771        C772   1.421       .  A
C771        C776   1.419       .  A
C772        C773   1.415       .  A
C772        C777   1.452       .  S
C773        C774   1.411       .  A
C773        C780   1.451       .  S
C774        C775   1.412       .  A
C775        C776   1.414       .  A
C775        C778   1.452       .  S
C776        C779   1.450       .  S
C777        N784   1.158       .  T
C778        N783   1.157       .  T
C779        N781   1.157       .  T
C780        N782   1.157       .  T
C785        C786   1.418       .  A
C785        C790   1.423       .  A
C786        C787   1.413       .  A
C786        C791   1.454       .  S
C787        C788   1.421       .  A
C787        C794   1.454       .  S
C788        C789   1.417       .  A
C789        C790   1.417       .  A
C789        C792   1.452       .  S
C790        C793   1.451       .  S
C791        N798   1.158       .  T
C792        N797   1.158       .  T
C793        N795   1.157       .  T
C794        N796   1.158       .  T
C799        C800   1.417       .  A
C799        C804   1.416       .  A
C800        C801   1.411       .  A
C800        C805   1.454       .  S
C801        C802   1.417       .  A
C801        C808   1.453       .  S
C802        C803   1.418       .  A
C803        C804   1.415       .  A
C803        C806   1.451       .  S
C804        C807   1.451       .  S
C805        N812   1.158       .  T
C806        N811   1.157       .  T
C807        N809   1.157       .  T
C808        N810   1.157       .  T
C813        C814   1.412       .  A
C813        C818   1.410       .  A
C814        C815   1.419       .  A
C814        C819   1.451       .  S
C815        C816   1.424       .  A
C815        C822   1.450       .  S
C816        C817   1.425       .  A
C817        C818   1.408       .  A
C817        C820   1.454       .  S
C818        C821   1.454       .  S
C819        N826   1.157       .  T
C820        N825   1.158       .  T
C821        N823   1.157       .  T
C822        N824   1.158       .  T
C827        C828   1.414       .  A
C827        C832   1.412       .  A
C828        C829   1.409       .  A
C828        C833   1.452       .  S
C829        C830   1.412       .  A
C829        C836   1.452       .  S
C830        C831   1.414       .  A
C831        C832   1.414       .  A
C831        C834   1.449       .  S
C832        C835   1.451       .  S
C833        N840   1.157       .  T
C834        N839   1.157       .  T
C835        N837   1.157       .  T
C836        N838   1.157       .  T
C841        C842   1.412       .  A
C841        C846   1.415       .  A
C842        C843   1.411       .  A
C842        C847   1.453       .  S
C843        C844   1.422       .  A
C843        C850   1.453       .  S
C844        C845   1.419       .  A
C845        C846   1.417       .  A
C845        C848   1.450       .  S
C846        C849   1.451       .  S
C847        N854   1.157       .  T
C848        N853   1.157       .  T
C849        N851   1.158       .  T
C850        N852   1.158       .  T
C855        C856   1.423       .  A
C855        C860   1.421       .  A
C856        C857   1.416       .  A
C856        C861   1.452       .  S
C857        C858   1.409       .  A
C857        C864   1.450       .  S
C858        C859   1.410       .  A
C859        C860   1.414       .  A
C859        C862   1.452       .  S
C860        C863   1.451       .  S
C861        N868   1.158       .  T
C862        N867   1.157       .  T
C863        N865   1.158       .  T
C864        N866   1.157       .  T
C869        C870   1.418       .  A
C869        C874   1.417       .  A
C870        C871   1.414       .  A
C870        C875   1.451       .  S
C871        C872   1.414       .  A
C871        C878   1.451       .  S
C872        C873   1.414       .  A
C873        C874   1.411       .  A
C873        C876   1.452       .  S
C874        C877   1.452       .  S
C875        N882   1.158       .  T
C876        N881   1.157       .  T
C877        N879   1.158       .  T
C878        N880   1.157       .  T
C883        C884   1.427       .  A
C883        C888   1.426       .  A
C884        C885   1.413       .  A
C884        C889   1.452       .  S
C885        C886   1.406       .  A
C885        C892   1.452       .  S
C886        C887   1.406       .  A
C887        C888   1.413       .  A
C887        C890   1.452       .  S
C888        C891   1.451       .  S
C889        N896   1.158       .  T
C890        N895   1.157       .  T
C891        N893   1.157       .  T
C892        N894   1.157       .  T
C897        C898   1.418       .  A
C897        C902   1.418       .  A
C898        C899   1.414       .  A
C898        C903   1.451       .  S
C899        C900   1.414       .  A
C899        C906   1.451       .  S
C900        C901   1.414       .  A
C901        C902   1.412       .  A
C901        C904   1.452       .  S
C902        C905   1.452       .  S
C903        N910   1.157       .  T
C904        N909   1.157       .  T
C905        N907   1.157       .  T
C906        N908   1.157       .  T
C911        C912   1.411       .  A
C911        C916   1.410       .  A
C912        C913   1.410       .  A
C912        C917   1.451       .  S
C913        C914   1.411       .  A
C913        C920   1.450       .  S
C914        C915   1.413       .  A
C915        C916   1.411       .  A
C915        C918   1.451       .  S
C916        C919   1.451       .  S
C917        N924   1.157       .  T
C918        N923   1.157       .  T
C919        N921   1.157       .  T
C920        N922   1.157       .  T
C925        C926   1.418       .  A
C925        C930   1.422       .  A
C926        C927   1.410       .  A
C926        C931   1.453       .  S
C927        C928   1.415       .  A
C927        C934   1.453       .  S
C928        C929   1.412       .  A
C929        C930   1.413       .  A
C929        C932   1.450       .  S
C930        C933   1.453       .  S
C931        N938   1.158       .  T
C932        N937   1.157       .  T
C933        N935   1.158       .  T
C934        N936   1.157       .  T
C939        C940   1.413       .  A
C939        C944   1.416       .  A
C940        C941   1.412       .  A
C940        C945   1.451       .  S
C941        C942   1.413       .  A
C941        C948   1.451       .  S
C942        C943   1.412       .  A
C943        C944   1.415       .  A
C943        C946   1.451       .  S
C944        C947   1.451       .  S
C945        N952   1.157       .  T
C946        N951   1.157       .  T
C947        N949   1.157       .  T
C948        N950   1.157       .  T
C953        C954   1.418       .  A
C953        C958   1.422       .  A
C954        C955   1.415       .  A
C954        C959   1.451       .  S
C955        C956   1.410       .  A
C955        C962   1.450       .  S
C956        C957   1.410       .  A
C957        C958   1.412       .  A
C957        C960   1.452       .  S
C958        C961   1.453       .  S
C959        N966   1.157       .  T
C960        N965   1.157       .  T
C961        N963   1.158       .  T
C962        N964   1.157       .  T
C967        C968   1.416       .  A
C967        C972   1.416       .  A
C968        C969   1.413       .  A
C968        C973   1.451       .  S
C969        C970   1.414       .  A
C969        C976   1.451       .  S
C970        C971   1.413       .  A
C971        C972   1.410       .  A
C971        C974   1.452       .  S
C972        C975   1.452       .  S
C973        N980   1.157       .  T
C974        N979   1.157       .  T
C975        N977   1.158       .  T
C976        N978   1.157       .  T
C981        C982   1.415       .  A
C981        C986   1.419       .  A
C982        C983   1.416       .  A
C982        C987   1.451       .  S
C983        C984   1.416       .  A
C983        C990   1.450       .  S
C984        C985   1.416       .  A
C985        C986   1.412       .  A
C985        C988   1.453       .  S
C986        C989   1.453       .  S
C987        N994   1.157       .  T
C988        N993   1.158       .  T
C989        N991   1.158       .  T
C990        N992   1.157       .  T
C995        C996   1.427       .  A
C995       C1000   1.427       .  A
C996        C997   1.415       .  A
C996       C1001   1.451       .  S
C997        C998   1.406       .  A
C997       C1004   1.452       .  S
C998        C999   1.407       .  A
C999       C1000   1.413       .  A
C999       C1002   1.453       .  S
C1000      C1003   1.452       .  S
C1001      N1008   1.158       .  T
C1002      N1007   1.157       .  T
C1003      N1005   1.158       .  T
C1004      N1006   1.157       .  T
C1009      C1010   1.419       .  A
C1009      C1014   1.418       .  A
C1010      C1011   1.410       .  A
C1010      C1015   1.449       .  S
C1011      C1012   1.411       .  A
C1011      C1018   1.453       .  S
C1012      C1013   1.411       .  A
C1013      C1014   1.415       .  A
C1013      C1016   1.449       .  S
C1014      C1017   1.451       .  S
C1015      N1022   1.157       .  T
C1016      N1021   1.157       .  T
C1017      N1019   1.157       .  T
C1018      N1020   1.157       .  T
C1023      C1024   1.412       .  A
C1023      C1028   1.408       .  A
C1024      C1025   1.418       .  A
C1024      C1029   1.449       .  S
C1025      C1026   1.421       .  A
C1025      C1032   1.450       .  S
C1026      C1027   1.424       .  A
C1027      C1028   1.410       .  A
C1027      C1030   1.453       .  S
C1028      C1031   1.451       .  S
C1029      N1036   1.157       .  T
C1030      N1035   1.158       .  T
C1031      N1033   1.157       .  T
C1032      N1034   1.158       .  T
C1037      C1038   1.411       .  A
C1037      C1042   1.411       .  A
C1038      C1039   1.412       .  A
C1038      C1043   1.450       .  S
C1039      C1040   1.411       .  A
C1039      C1046   1.450       .  S
C1040      C1041   1.412       .  A
C1041      C1042   1.411       .  A
C1041      C1044   1.451       .  S
C1042      C1045   1.451       .  S
C1043      N1050   1.157       .  T
C1044      N1049   1.157       .  T
C1045      N1047   1.157       .  T
C1046      N1048   1.157       .  T
C1051      C1052   1.417       .  A
C1051      C1056   1.417       .  A
C1052      C1053   1.412       .  A
C1052      C1057   1.453       .  S
C1053      C1054   1.417       .  A
C1053      C1060   1.453       .  S
C1054      C1055   1.416       .  A
C1055      C1056   1.416       .  A
C1055      C1058   1.450       .  S
C1056      C1059   1.452       .  S
C1057      N1064   1.158       .  T
C1058      N1063   1.157       .  T
C1059      N1061   1.157       .  T
C1060      N1062   1.157       .  T
C1065      C1066   1.419       .  A
C1065      C1070   1.418       .  A
C1066      C1067   1.417       .  A
C1066      C1071   1.449       .  S
C1067      C1068   1.413       .  A
C1067      C1074   1.450       .  S
C1068      C1069   1.412       .  A
C1069      C1070   1.412       .  A
C1069      C1072   1.452       .  S
C1070      C1073   1.452       .  S
C1071      N1078   1.157       .  T
C1072      N1077   1.157       .  T
C1073      N1075   1.157       .  T
C1074      N1076   1.157       .  T
C1079      C1080   1.413       .  A
C1079      C1084   1.413       .  A
C1080      C1081   1.412       .  A
C1080      C1085   1.452       .  S
C1081      C1082   1.416       .  A
C1081      C1088   1.452       .  S
C1082      C1083   1.416       .  A
C1083      C1084   1.416       .  A
C1083      C1086   1.451       .  S
C1084      C1087   1.450       .  S
C1085      N1092   1.157       .  T
C1086      N1091   1.157       .  T
C1087      N1089   1.157       .  T
C1088      N1090   1.157       .  T
C1093      C1094   1.419       .  A
C1093      C1098   1.419       .  A
C1094      C1095   1.411       .  A
C1094      C1099   1.452       .  S
C1095      C1096   1.413       .  A
C1095      C1102   1.453       .  S
C1096      C1097   1.411       .  A
C1097      C1098   1.416       .  A
C1097      C1100   1.450       .  S
C1098      C1101   1.451       .  S
C1099      N1106   1.158       .  T
C1100      N1105   1.157       .  T
C1101      N1103   1.158       .  T
C1102      N1104   1.157       .  T
C1107      C1108   1.415       .  A
C1107      C1112   1.417       .  A
C1108      C1109   1.413       .  A
C1108      C1113   1.452       .  S
C1109      C1110   1.413       .  A
C1109      C1116   1.449       .  S
C1110      C1111   1.413       .  A
C1111      C1112   1.413       .  A
C1111      C1114   1.452       .  S
C1112      C1115   1.452       .  S
C1113      N1120   1.157       .  T
C1114      N1119   1.157       .  T
C1115      N1117   1.158       .  T
C1116      N1118   1.156       .  T
C1121      C1122   1.416       .  A
C1121      C1126   1.418       .  A
C1122      C1123   1.414       .  A
C1122      C1127   1.451       .  S
C1123      C1124   1.415       .  A
C1123      C1130   1.451       .  S
C1124      C1125   1.414       .  A
C1125      C1126   1.417       .  A
C1125      C1128   1.450       .  S
C1126      C1129   1.451       .  S
C1127      N1134   1.158       .  T
C1128      N1133   1.157       .  T
C1129      N1131   1.157       .  T
C1130      N1132   1.157       .  T
C1135      C1136   1.422       .  A
C1135      C1140   1.421       .  A
C1136      C1137   1.414       .  A
C1136      C1141   1.451       .  S
C1137      C1138   1.410       .  A
C1137      C1144   1.452       .  S
C1138      C1139   1.408       .  A
C1139      C1140   1.414       .  A
C1139      C1142   1.451       .  S
C1140      C1143   1.451       .  S
C1141      N1148   1.158       .  T
C1142      N1147   1.157       .  T
C1143      N1145   1.157       .  T
C1144      N1146   1.157       .  T
C1149      C1150   1.411       .  A
C1149      C1154   1.413       .  A
C1150      C1151   1.412       .  A
C1150      C1155   1.450       .  S
C1151      C1152   1.411       .  A
C1151      C1158   1.450       .  S
C1152      C1153   1.412       .  A
C1153      C1154   1.414       .  A
C1153      C1156   1.451       .  S
C1154      C1157   1.451       .  S
C1155      N1162   1.157       .  T
C1156      N1161   1.157       .  T
C1157      N1159   1.157       .  T
C1158      N1160   1.157       .  T
C1163      C1164   1.416       .  A
C1163      C1168   1.418       .  A
C1164      C1165   1.414       .  A
C1164      C1169   1.452       .  S
C1165      C1166   1.414       .  A
C1165      C1172   1.452       .  S
C1166      C1167   1.414       .  A
C1167      C1168   1.416       .  A
C1167      C1170   1.450       .  S
C1168      C1171   1.451       .  S
C1169      N1176   1.157       .  T
C1170      N1175   1.157       .  T
C1171      N1173   1.157       .  T
C1172      N1174   1.157       .  T
C1177      C1178   1.416       .  A
C1177      C1182   1.416       .  A
C1178      C1179   1.407       .  A
C1178      C1183   1.453       .  S
C1179      C1180   1.411       .  A
C1179      C1186   1.452       .  S
C1180      C1181   1.412       .  A
C1181      C1182   1.413       .  A
C1181      C1184   1.451       .  S
C1182      C1185   1.451       .  S
C1183      N1190   1.158       .  T
C1184      N1189   1.157       .  T
C1185      N1187   1.158       .  T
C1186      N1188   1.157       .  T
C1191      C1192   1.418       .  A
C1191      C1196   1.417       .  A
C1192      C1193   1.413       .  A
C1192      C1197   1.453       .  S
C1193      C1194   1.417       .  A
C1193      C1200   1.453       .  S
C1194      C1195   1.414       .  A
C1195      C1196   1.415       .  A
C1195      C1198   1.451       .  S
C1196      C1199   1.451       .  S
C1197      N1204   1.158       .  T
C1198      N1203   1.157       .  T
C1199      N1201   1.157       .  T
C1200      N1202   1.157       .  T
C1205      C1206   1.418       .  A
C1205      C1210   1.421       .  A
C1206      C1207   1.414       .  A
C1206      C1211   1.451       .  S
C1207      C1208   1.409       .  A
C1207      C1214   1.449       .  S
C1208      C1209   1.411       .  A
C1209      C1210   1.414       .  A
C1209      C1212   1.452       .  S
C1210      C1213   1.451       .  S
C1211      N1218   1.157       .  T
C1212      N1217   1.157       .  T
C1213      N1215   1.158       .  T
C1214      N1216   1.157       .  T
C1219      C1220   1.411       .  A
C1219      C1224   1.411       .  A
C1220      C1221   1.413       .  A
C1220      C1225   1.451       .  S
C1221      C1222   1.413       .  A
C1221      C1228   1.450       .  S
C1222      C1223   1.411       .  A
C1223      C1224   1.410       .  A
C1223      C1226   1.451       .  S
C1224      C1227   1.451       .  S
C1225      N1232   1.157       .  T
C1226      N1231   1.157       .  T
C1227      N1229   1.157       .  T
C1228      N1230   1.157       .  T
C1233      C1234   1.419       .  A
C1233      C1238   1.417       .  A
C1234      C1235   1.418       .  A
C1234      C1239   1.451       .  S
C1235      C1236   1.414       .  A
C1235      C1242   1.451       .  S
C1236      C1237   1.413       .  A
C1237      C1238   1.411       .  A
C1237      C1240   1.453       .  S
C1238      C1241   1.451       .  S
C1239      N1246   1.158       .  T
C1240      N1245   1.157       .  T
C1241      N1243   1.157       .  T
C1242      N1244   1.157       .  T
C1247      C1248   1.412       .  A
C1247      C1252   1.413       .  A
C1248      C1249   1.414       .  A
C1248      C1253   1.450       .  S
C1249      C1250   1.414       .  A
C1249      C1256   1.451       .  S
C1250      C1251   1.414       .  A
C1251      C1252   1.416       .  A
C1251      C1254   1.450       .  S
C1252      C1255   1.450       .  S
C1253      N1260   1.157       .  T
C1254      N1259   1.157       .  T
C1255      N1257   1.157       .  T
C1256      N1258   1.157       .  T
C1261      C1262   1.419   1_554  A
C1261      C1266   1.418       .  A
C1262      C1263   1.409       .  A
C1262      C1267   1.452       .  S
C1263      C1264   1.410       .  A
C1263      C1270   1.451       .  S
C1264      C1265   1.411   1_556  A
C1265      C1266   1.410       .  A
C1265      C1268   1.451       .  S
C1266      C1269   1.452       .  S
C1267      N1274   1.158       .  T
C1268      N1273   1.157       .  T
C1269      N1271   1.158       .  T
C1270      N1272   1.157       .  T
C1275      C1276   1.419   1_556  A
C1275      C1280   1.421       .  A
C1276      C1277   1.411       .  A
C1276      C1281   1.451       .  S
C1277      C1278   1.410   1_554  A
C1277      C1284   1.452       .  S
C1278      C1279   1.409       .  A
C1279      C1280   1.410       .  A
C1279      C1282   1.452       .  S
C1280      C1283   1.452       .  S
C1281      N1288   1.157       .  T
C1282      N1287   1.157       .  T
C1283      N1285   1.157       .  T
C1284      N1286   1.157       .  T
C1289      C1290   1.413   1_556  A
C1289      C1294   1.412       .  A
C1290      C1291   1.411       .  A
C1290      C1295   1.452       .  S
C1291      C1292   1.417   1_554  A
C1291      C1298   1.452       .  S
C1292      C1293   1.419       .  A
C1293      C1294   1.412       .  A
C1293      C1296   1.451       .  S
C1294      C1297   1.452       .  S
C1295      N1302   1.157       .  T
C1296      N1301   1.157       .  T
C1297      N1299   1.157       .  T
C1298      N1300   1.157       .  T
C1303      C1304   1.428       .  A
C1303      C1308   1.428   1_556  A
C1304      C1305   1.415       .  A
C1304      C1309   1.450       .  S
C1305      C1306   1.406       .  A
C1305      C1312   1.452       .  S
C1306      C1307   1.406   1_556  A
C1307      C1308   1.413       .  A
C1307      C1310   1.452       .  S
C1308      C1311   1.452       .  S
C1309      N1316   1.157       .  T
C1310      N1315   1.157       .  T
C1311      N1313   1.158       .  T
C1312      N1314   1.157       .  T
C1317      C1318   1.411   1_455  A
C1317      C1322   1.411       .  A
C1318      C1319   1.410       .  A
C1318      C1323   1.452       .  S
C1319      C1320   1.417   1_655  A
C1319      C1326   1.451       .  S
C1320      C1321   1.419       .  A
C1321      C1322   1.411       .  A
C1321      C1324   1.451       .  S
C1322      C1325   1.452       .  S
C1323      N1330   1.157       .  T
C1324      N1329   1.158       .  T
C1325      N1327   1.157       .  T
C1326      N1328   1.157       .  T
C1331      C1332   1.406       .  A
C1331      C1336   1.410   1_455  A
C1332      C1333   1.410       .  A
C1332      C1337   1.452       .  S
C1333      C1334   1.424       .  A
C1333      C1340   1.452       .  S
C1334      C1335   1.421   1_455  A
C1335      C1336   1.411       .  A
C1335      C1338   1.452       .  S
C1336      C1339   1.452       .  S
C1337      N1344   1.157       .  T
C1338      N1343   1.158       .  T
C1339      N1341   1.157       .  T
C1340      N1342   1.158       .  T
C1345      C1346   1.408       .  A
C1345      C1350   1.410   1_655  A
C1346      C1347   1.411       .  A
C1346      C1351   1.452       .  S
C1347      C1348   1.422       .  A
C1347      C1354   1.451       .  S
C1348      C1349   1.420   1_655  A
C1349      C1350   1.412       .  A
C1349      C1352   1.452       .  S
C1350      C1353   1.452       .  S
C1351      N1358   1.157       .  T
C1352      N1357   1.158       .  T
C1353      N1355   1.157       .  T
C1354      N1356   1.157       .  T
C1359      C1360   1.414   1_455  A
C1359      C1364   1.414       .  A
C1360      C1361   1.412       .  A
C1360      C1365   1.451       .  S
C1361      C1362   1.417       .  A
C1361      C1368   1.452       .  S
C1362      C1363   1.415   1_655  A
C1363      C1364   1.411       .  A
C1363      C1366   1.452       .  S
C1364      C1367   1.451       .  S
C1365      N1372   1.157       .  T
C1366      N1371   1.157       .  T
C1367      N1369   1.157       .  T
C1368      N1370   1.158       .  T
C1373      C1374   1.416       .  A
C1373      C1378   1.416       .  A
C1374      C1375   1.411       .  A
C1374      C1379   1.451       .  S
C1375      C1376   1.413       .  A
C1375      C1382   1.451       .  S
C1376      C1377   1.412       .  A
C1377      C1378   1.408       .  A
C1377      C1380   1.451       .  S
C1378      C1381   1.452       .  S
C1379      N1386   1.157       .  T
C1380      N1385   1.157       .  T
C1381      N1383   1.157       .  T
C1382      N1384   1.157       .  T
C1387      C1388   1.422       .  A
C1387      C1392   1.419       .  A
C1388      C1389   1.410       .  A
C1388      C1393   1.452       .  S
C1389      C1390   1.409       .  A
C1389      C1396   1.452       .  S
C1390      C1391   1.411       .  A
C1391      C1392   1.411       .  A
C1391      C1394   1.452       .  S
C1392      C1395   1.450       .  S
C1393      N1400   1.158       .  T
C1394      N1399   1.157       .  T
C1395      N1397   1.157       .  T
C1396      N1398   1.157       .  T
C1401      C1402   1.423       .  A
C1401      C1406   1.420       .  A
C1402      C1403   1.409       .  A
C1402      C1407   1.452       .  S
C1403      C1404   1.407       .  A
C1403      C1410   1.452       .  S
C1404      C1405   1.408       .  A
C1405      C1406   1.408       .  A
C1405      C1408   1.452       .  S
C1406      C1409   1.451       .  S
C1407      N1414   1.158       .  T
C1408      N1413   1.157       .  T
C1409      N1411   1.157       .  T
C1410      N1412   1.157       .  T
C1415      C1416   1.408       .  A
C1415      C1420   1.409       .  A
C1416      C1417   1.410       .  A
C1416      C1421   1.452       .  S
C1417      C1418   1.425       .  A
C1417      C1424   1.452       .  S
C1418      C1419   1.424       .  A
C1419      C1420   1.411       .  A
C1419      C1422   1.451       .  S
C1420      C1423   1.452       .  S
C1421      N1428   1.157       .  T
C1422      N1427   1.158       .  T
C1423      N1425   1.157       .  T
C1424      N1426   1.158       .  T
C1429      C1430   1.422       .  A
C1429      C1434   1.420       .  A
C1430      C1431   1.410       .  A
C1430      C1435   1.451       .  S
C1431      C1432   1.408       .  A
C1431      C1438   1.452       .  S
C1432      C1433   1.409       .  A
C1433      C1434   1.408       .  A
C1433      C1436   1.452       .  S
C1434      C1437   1.452       .  S
C1435      N1442   1.158       .  T
C1436      N1441   1.157       .  T
C1437      N1439   1.158       .  T
C1438      N1440   1.157       .  T
C1443      C1444   1.410       .  A
C1443      C1448   1.411       .  A
C1444      C1445   1.410       .  A
C1444      C1449   1.452       .  S
C1445      C1446   1.418       .  A
C1445      C1452   1.451       .  S
C1446      C1447   1.419       .  A
C1447      C1448   1.412       .  A
C1447      C1450   1.451       .  S
C1448      C1451   1.451       .  S
C1449      N1456   1.157       .  T
C1450      N1455   1.157       .  T
C1451      N1453   1.157       .  T
C1452      N1454   1.157       .  T
C1457      C1458   1.419       .  A
C1457      C1462   1.419       .  A
C1458      C1459   1.408       .  A
C1458      C1463   1.453       .  S
C1459      C1460   1.412       .  A
C1459      C1466   1.453       .  S
C1460      C1461   1.410       .  A
C1461      C1462   1.409       .  A
C1461      C1464   1.452       .  S
C1462      C1465   1.451       .  S
C1463      N1470   1.158       .  T
C1464      N1469   1.157       .  T
C1465      N1467   1.157       .  T
C1466      N1468   1.157       .  T
C1471      C1472   1.420       .  A
C1471      C1476   1.422       .  A
C1472      C1473   1.411       .  A
C1472      C1477   1.451       .  S
C1473      C1474   1.409       .  A
C1473      C1480   1.451       .  S
C1474      C1475   1.410       .  A
C1475      C1476   1.412       .  A
C1475      C1478   1.452       .  S
C1476      C1479   1.452       .  S
C1477      N1484   1.157       .  T
C1478      N1483   1.157       .  T
C1479      N1481   1.158       .  T
C1480      N1482   1.157       .  T
C1485      C1486   1.412       .  A
C1485      C1490   1.413       .  A
C1486      C1487   1.410       .  A
C1486      C1491   1.452       .  S
C1487      C1488   1.418       .  A
C1487      C1494   1.452       .  S
C1488      C1489   1.418       .  A
C1489      C1490   1.412       .  A
C1489      C1492   1.452       .  S
C1490      C1493   1.451       .  S
C1491      N1498   1.157       .  T
C1492      N1497   1.157       .  T
C1493      N1495   1.157       .  T
C1494      N1496   1.157       .  T
C1499      C1500   1.416       .  A
C1499      C1504   1.421       .  A
C1500      C1501   1.412       .  A
C1500      C1505   1.451       .  S
C1501      C1502   1.411       .  A
C1501      C1508   1.450       .  S
C1502      C1503   1.409       .  A
C1503      C1504   1.409       .  A
C1503      C1506   1.452       .  S
C1504      C1507   1.452       .  S
C1505      N1512   1.157       .  T
C1506      N1511   1.157       .  T
C1507      N1509   1.158       .  T
C1508      N1510   1.157       .  T
C1513      C1514   1.413       .  A
C1513      C1518   1.412       .  A
C1514      C1515   1.410       .  A
C1514      C1519   1.451       .  S
C1515      C1516   1.415       .  A
C1515      C1522   1.452       .  S
C1516      C1517   1.418       .  A
C1517      C1518   1.412       .  A
C1517      C1520   1.451       .  S
C1518      C1521   1.451       .  S
C1519      N1526   1.157       .  T
C1520      N1525   1.157       .  T
C1521      N1523   1.157       .  T
C1522      N1524   1.157       .  T
C1527      C1528   1.409       .  A
C1527      C1532   1.410       .  A
C1528      C1529   1.412       .  A
C1528      C1533   1.452       .  S
C1529      C1530   1.423       .  A
C1529      C1536   1.450       .  S
C1530      C1531   1.423       .  A
C1531      C1532   1.415       .  A
C1531      C1534   1.451       .  S
C1532      C1535   1.451       .  S
C1533      N1540   1.157       .  T
C1534      N1539   1.158       .  T
C1535      N1537   1.157       .  T
C1536      N1538   1.157       .  T
