geometry optimzed in LAMMPS
_audit_creation_date              2020-11-30 
_audit_creation_method            'lammps2cif' 
_symmetry_space_group_name_H-M    'P1' 
_symmetry_Int_Tables_number       1 
_symmetry_cell_setting            triclinic 
loop_ 
_symmetry_equiv_pos_as_xyz 
  x,y,z 
_cell_length_a                    35.29880067 
_cell_length_b                    31.99790937621019 
_cell_length_c                    32.751096743665244 
_cell_angle_alpha                 89.88251391933456 
_cell_angle_beta                  90.20288694230548 
_cell_angle_gamma                 91.00868323315547 
loop_ 
_atom_site_label 
_atom_site_type_symbol 
_atom_site_fract_x 
_atom_site_fract_y 
_atom_site_fract_z 
_atom_site_charge 
O1          O  0.53178524  0.02922034  0.45820838    -0.73500
O2          O  0.52561260  0.94960969  0.54601778    -0.73500
O3          O  0.52675400  0.94490589  0.46339600    -0.73600
O4          O  0.53136499  0.03394712  0.54122051    -0.73600
O5          O  0.46831389  0.03705915  0.54108721    -0.73600
O6          O  0.46368599  0.94745896  0.46183536    -0.73500
O7          O  0.46252607  0.95199559  0.54520259    -0.73500
O8          O  0.46874560  0.03253846  0.45755182    -0.73600
Ni9        Ni  0.53102895  0.98932291  0.50227236     1.25400
Ni10       Ni  0.46352342  0.99246561  0.50136465     1.25400
C11         C  0.50113153  0.04375488  0.44313825     0.88700
C12         C  0.49329671  0.93754160  0.56002394     0.88600
C13         C  0.49480476  0.93159464  0.44952246     0.88600
C14         C  0.50075640  0.04981745  0.55451680     0.88800
O15         O  0.96842229  0.45523838  0.46674362    -0.73500
O16         O  0.03199838  0.55214638  0.46546868    -0.73500
O17         O  0.04453546  0.46921638  0.46529179    -0.73600
O18         O  0.95705753  0.53725221  0.46772772    -0.73600
O19         O  0.95832171  0.53768042  0.53593227    -0.73600
O20         O  0.04581474  0.46897577  0.53346222    -0.73500
O21         O  0.03365925  0.55228080  0.53367573    -0.73500
O22         O  0.96935549  0.45542723  0.53496627    -0.73600
Ni23       Ni  0.00068111  0.50331487  0.46388950     1.25400
Ni24       Ni  0.00212433  0.50338840  0.53700957     1.25400
C25         C  0.95586411  0.44197228  0.50100930     0.88700
C26         C  0.04233494  0.56874908  0.49923426     0.88600
C27         C  0.05982007  0.45833296  0.49907576     0.88600
C28         C  0.94291631  0.54790631  0.50205509     0.88800
O29         O  0.55335101  0.53485252  0.95805422    -0.73500
O30         O  0.47607148  0.53129729  0.04209409    -0.73500
O31         O  0.55398737  0.53446095  0.04177042    -0.73600
O32         O  0.47554018  0.53127828  0.95822957    -0.73600
O33         O  0.47717790  0.46173311  0.95874178    -0.73600
O34         O  0.55495837  0.46488494  0.04181053    -0.73500
O35         O  0.47741969  0.46174601  0.04208294    -0.73500
O36         O  0.55460376  0.46529641  0.95840965    -0.73600
Ni37       Ni  0.51467490  0.53544312  0.00007188     1.25400
Ni38       Ni  0.51608890  0.46104720  0.00027779     1.25400
C39         C  0.56678116  0.50057190  0.94437137     0.88700
C40         C  0.46382944  0.49592296  0.05582704     0.88600
C41         C  0.56751989  0.50007031  0.05543307     0.88600
C42         C  0.46350686  0.49576825  0.94463222     0.88800
O43         O  0.98287535  0.47420270  0.96062589    -0.73500
O44         O  0.98429561  0.55920029  0.04259114    -0.73500
O45         O  0.98468100  0.55857509  0.96005353    -0.73600
O46         O  0.98187175  0.47492126  0.04373516    -0.73600
O47         O  0.04502100  0.47409574  0.04483559    -0.73600
O48         O  0.04786582  0.55857025  0.96025234    -0.73500
O49         O  0.04749806  0.55926241  0.04347217    -0.73500
O50         O  0.04604933  0.47354291  0.96103514    -0.73600
Ni51       Ni  0.98127873  0.51667813  0.00171560     1.25400
Ni52       Ni  0.04893089  0.51624601  0.00245441     1.25400
C53         C  0.01415290  0.46040505  0.94672849     0.88700
C54         C  0.01598332  0.57327199  0.05651086     0.88600
C55         C  0.01643287  0.57239065  0.94630031     0.88600
C56         C  0.01283323  0.46117996  0.05864260     0.88800
O57         O  0.54532113  0.04989755  0.96376509    -0.73500
O58         O  0.48356170  0.95121088  0.96354792    -0.73500
O59         O  0.46883688  0.03386972  0.96361991    -0.73600
O60         O  0.55845375  0.96837130  0.96450392    -0.73600
O61         O  0.55779593  0.96816664  0.03274453    -0.73600
O62         O  0.46951364  0.03451148  0.03178491    -0.73500
O63         O  0.48315664  0.95193316  0.03176669    -0.73500
O64         O  0.54594519  0.04969053  0.03197838    -0.73600
Ni65       Ni  0.51377880  0.00105515  0.96133763     1.25400
Ni66       Ni  0.51379532  0.00130848  0.03447689     1.25400
C67         C  0.55901647  0.06277254  0.99779401     0.88700
C68         C  0.47414848  0.93483579  0.99773170     0.88600
C69         C  0.45405581  0.04419200  0.99777384     0.88600
C70         C  0.57310106  0.95834715  0.99891755     0.88800
O71         O  0.72719443  0.79127470  0.84375989    -0.80000
O72         O  0.78404266  0.67580522  0.70773332    -0.64600
O73         O  0.77459900  0.76691677  0.78170706    -1.11300
C74         C  0.67442200  0.80474539  0.69073315     1.06900
O75         O  0.78408601  0.72267227  0.65826347    -0.77900
O76         O  0.76631810  0.80291898  0.65995013    -0.65400
Ni77       Ni  0.77134763  0.75790542  0.83897813     1.34900
C78         C  0.77729145  0.82943093  0.68634327     0.85700
O79         O  0.82310173  0.69906724  0.77513701    -0.78400
O80         O  0.81613140  0.72480723  0.83850359    -0.88700
C81         C  0.78919007  0.68555217  0.67054344     0.85200
O82         O  0.73903947  0.70936707  0.83922545    -0.66900
O83         O  0.69056863  0.78133065  0.66470747    -0.86200
C84         C  0.73119171  0.68125358  0.81314822     0.86100
C85         C  0.83433271  0.70403623  0.81201192     1.07600
H86         H  0.71403449  0.72567791  0.72555632     0.39400
O87         O  0.73592977  0.74339828  0.72032760    -1.08800
O88         O  0.76660472  0.82713728  0.72349385    -0.65500
Ni89       Ni  0.73205302  0.79102817  0.75435483     1.26300
O90         O  0.74546033  0.68197447  0.77730894    -0.65700
O91         O  0.68833605  0.81263522  0.72608102    -0.78000
C92         C  0.72367767  0.82793531  0.82962416     0.85500
O93         O  0.72887401  0.83593052  0.79217061    -0.65200
Ni94       Ni  0.73747928  0.75184256  0.66300904     1.27400
Ni95       Ni  0.77920444  0.71978540  0.74696126     1.26100
H96         H  0.79663542  0.78468817  0.77738789     0.40000
O97         O  0.28061375  0.64573204  0.76986275    -0.80000
O98         O  0.18792978  0.80837930  0.71583404    -0.64600
O99         O  0.26087184  0.72136950  0.73075941    -1.11300
C100        C  0.31426679  0.80398726  0.83229038     1.06900
O101        O  0.22518198  0.86207660  0.73357873    -0.77900
O102        O  0.29624803  0.83191538  0.72544303    -0.65400
Ni103      Ni  0.24190889  0.66480209  0.73311707     1.34900
C104        C  0.32275947  0.80560394  0.72502153     0.85700
O105        O  0.20468994  0.74077659  0.67524329    -0.78400
O106        O  0.20138393  0.67437237  0.69498235    -0.88700
C107        C  0.19523384  0.84743879  0.71680915     0.85200
O108        O  0.20973669  0.67588150  0.77796100    -0.66900
O109        O  0.30483128  0.83349904  0.80847924    -0.86200
C110        C  0.18344760  0.70242449  0.77891275     0.86100
C111        C  0.19227564  0.70381566  0.67100599     1.07600
H112        H  0.22690246  0.78474088  0.79503150     0.39400
O113        O  0.24494845  0.78669799  0.77301183    -1.08800
O114        O  0.32179305  0.77270080  0.74757873    -0.65500
Ni115      Ni  0.28208099  0.74399447  0.77979930     1.26300
O116        O  0.18419615  0.73531305  0.75638545    -0.65700
O117        O  0.30107332  0.76725719  0.82864103    -0.78000
C118        C  0.31038945  0.66048582  0.78676403     0.85500
O119        O  0.31760708  0.69954732  0.78804295    -0.65200
Ni120      Ni  0.26407810  0.84314055  0.77038128     1.27400
Ni121      Ni  0.22365885  0.76403398  0.72402590     1.26100
H122        H  0.27899790  0.72346912  0.70870429     0.40000
O123        O  0.78298940  0.29759109  0.65562135    -0.80000
O124        O  0.73383894  0.17624257  0.79211425    -0.64600
O125        O  0.73782175  0.26795856  0.71845868    -1.11300
C126        C  0.83432900  0.31648612  0.81077383     1.06900
O127        O  0.73056210  0.22155473  0.84311550    -0.77900
O128        O  0.74328710  0.30345034  0.83999957    -0.65400
Ni129      Ni  0.74056694  0.26010516  0.66111498     1.34900
C130        C  0.73086067  0.32870161  0.81350538     0.85700
O131        O  0.69417208  0.19412082  0.72455132    -0.78400
O132        O  0.69762052  0.22258211  0.66190118    -0.88700
C133        C  0.72452039  0.18544090  0.82830910     0.85200
O134        O  0.77484348  0.21459612  0.65988745    -0.66900
O135        O  0.81980500  0.29091578  0.83650087    -0.86200
C136        C  0.78502079  0.18769292  0.68603153     0.86100
C137        C  0.68203097  0.19817235  0.68795831     1.07600
H138        H  0.80029112  0.23325890  0.77514202     0.39400
O139        O  0.77741210  0.24842888  0.78021210    -1.08800
O140        O  0.74196227  0.32813524  0.77649338    -0.65500
Ni141      Ni  0.77876012  0.29631082  0.74610524     1.26300
O142        O  0.77213730  0.18731791  0.72247149    -0.65700
O143        O  0.82058849  0.32264391  0.77508686    -0.78000
C144        C  0.78759540  0.33369487  0.67103409     0.85500
O145        O  0.78017627  0.34130192  0.70805682    -0.65200
Ni146      Ni  0.77514321  0.25600751  0.83767134     1.27400
Ni147      Ni  0.73614009  0.22037300  0.75303286     1.26100
H148        H  0.71477915  0.28312786  0.72311314     0.40000
O149        O  0.30766009  0.20117061  0.67728013    -0.80000
O150        O  0.17646102  0.28406829  0.76895489    -0.64600
O151        O  0.27155175  0.26655186  0.71727968    -1.11300
C152        C  0.29619581  0.19318339  0.84003634     1.06900
O153        O  0.20719174  0.30625382  0.82375364    -0.77900
O154        O  0.28126537  0.29649955  0.83944162    -0.65400
Ni155      Ni  0.27543890  0.24711674  0.66291224     1.34900
C156        C  0.30974065  0.30379885  0.81687542     0.85700
O157        O  0.20508619  0.30784907  0.69663210    -0.78400
O158        O  0.24455585  0.29226776  0.64502058    -0.88700
C159        C  0.17728018  0.30500314  0.80198749     0.85200
O160        O  0.23264467  0.20952469  0.66135144    -0.66900
O161        O  0.26895582  0.21382414  0.85518663    -0.86200
C162        C  0.20422003  0.20293414  0.68429271     0.86100
C163        C  0.21741132  0.31289602  0.66035547     1.07600
H164        H  0.23010007  0.21362813  0.78256889     0.39400
O165        O  0.24276226  0.24042140  0.78327607    -1.08800
O166        O  0.31587225  0.28287176  0.78438305    -0.65500
Ni167      Ni  0.29162457  0.23325371  0.76008128     1.26300
O168        O  0.19838130  0.22429369  0.71660406    -0.65700
O169        O  0.30921746  0.19906496  0.80411636    -0.78000
C170        C  0.33799883  0.20417772  0.69830799     0.85500
O171        O  0.33825869  0.22401076  0.73196339    -0.65200
Ni172      Ni  0.23852706  0.25944961  0.83765040     1.27400
Ni173      Ni  0.22283847  0.27394401  0.74064405     1.26100
H174        H  0.28448365  0.29373367  0.71779899     0.40000
O175        O  0.78249388  0.71077594  0.34590752    -0.80000
O176        O  0.72490724  0.82978246  0.21093954    -0.64600
O177        O  0.73559645  0.73675360  0.28258326    -1.11300
C178        C  0.83539851  0.70265738  0.19139451     1.06900
O179        O  0.72683100  0.78669545  0.15827028    -0.77900
O180        O  0.74276710  0.70618204  0.16090208    -0.65400
Ni181      Ni  0.73826458  0.74426545  0.34023450     1.34900
C182        C  0.73333919  0.67838081  0.18667985     0.85700
O183        O  0.68544703  0.80321333  0.27648025    -0.78400
O184        O  0.69350299  0.77760719  0.33989494    -0.88700
C185        C  0.72035037  0.82231708  0.17321855     0.85200
O186        O  0.77058304  0.79258575  0.34156220    -0.66900
O187        O  0.81861235  0.72552945  0.16533647    -0.86200
C188        C  0.77746816  0.82172644  0.31626239     0.86100
C189        C  0.67480018  0.79812362  0.31343020     1.07600
H190        H  0.79542345  0.78168302  0.22766857     0.39400
O191        O  0.77395638  0.76334687  0.22191208    -1.08800
O192        O  0.74556119  0.67903929  0.22335735    -0.65500
Ni193      Ni  0.77894666  0.71511818  0.25529180     1.26300
O194        O  0.76269941  0.82211946  0.28057324    -0.65700
O195        O  0.82293824  0.69553575  0.22728806    -0.78000
C196        C  0.78908561  0.67577640  0.32947678     0.85500
O197        O  0.78345240  0.66924811  0.29186048    -0.65200
Ni198      Ni  0.77260617  0.75627095  0.16411344     1.27400
Ni199      Ni  0.73007871  0.78460668  0.24867766     1.26100
H200        H  0.71410391  0.71846484  0.27755754     0.40000
O201        O  0.23846426  0.86131853  0.27855274    -0.80000
O202        O  0.31951983  0.69766933  0.21806797    -0.64600
O203        O  0.25244420  0.79077584  0.22886129    -1.11300
C204        C  0.19090049  0.70250815  0.32441032     1.06900
O205        O  0.27106777  0.65367866  0.21371875    -0.77900
O206        O  0.20001505  0.67831925  0.22406758    -0.65400
Ni207      Ni  0.27193708  0.84641661  0.23473536     1.34900
C208        C  0.18033534  0.71024788  0.21688391     0.85700
O209        O  0.31462214  0.77017762  0.18063841    -0.78400
O210        O  0.30745067  0.83863443  0.19113462    -0.88700
C211        C  0.30554104  0.66283078  0.20625534     0.85200
O212        O  0.30939966  0.83425411  0.27454519    -0.66900
O213        O  0.20688392  0.67231875  0.30629465    -0.86200
C214        C  0.32958605  0.80254269  0.28110668     0.86100
C215        C  0.32204127  0.80806868  0.17229782     1.07600
H216        H  0.27405557  0.72180208  0.29174485     0.39400
O217        O  0.25861696  0.72192344  0.26733697    -1.08800
O218        O  0.18653682  0.74568315  0.23362588    -0.65500
Ni219      Ni  0.22367035  0.76692571  0.27254191     1.26300
O220        O  0.32436535  0.76761635  0.26287535    -0.65700
O221        O  0.19629024  0.74078111  0.31533958    -0.78000
C222        C  0.20480674  0.85089377  0.28846668     0.85500
O223        O  0.19142588  0.81483340  0.27941917    -0.65200
Ni224      Ni  0.24000705  0.66611558  0.26052392     1.27400
Ni225      Ni  0.28734689  0.74553481  0.22399955     1.26100
H226        H  0.23701117  0.79076611  0.20443471     0.40000
O227        O  0.73959360  0.21537446  0.14757267    -0.80000
O228        O  0.77782320  0.33274558  0.29688311    -0.64600
O229        O  0.77645819  0.24475871  0.21846908    -1.11300
C230        C  0.67730621  0.18992799  0.30256673     1.06900
O231        O  0.77636676  0.28707213  0.34792405    -0.77900
O232        O  0.76962796  0.20504559  0.33563720    -0.65400
Ni233      Ni  0.77688787  0.25745221  0.16133204     1.34900
C234        C  0.77922230  0.17906091  0.30858532     0.85700
O235        O  0.82154525  0.31678863  0.23333479    -0.78400
O236        O  0.81572752  0.29999805  0.16736946    -0.88700
C237        C  0.78480288  0.32284142  0.33354311     0.85200
O238        O  0.73781324  0.29759249  0.16265697    -0.66900
O239        O  0.69272814  0.21148226  0.33091810    -0.86200
C240        C  0.72897136  0.32499739  0.18869672     0.86100
C241        C  0.83246675  0.31925204  0.19642882     1.07600
H242        H  0.71177275  0.27837376  0.27404358     0.39400
O243        O  0.73405968  0.26196020  0.27904049    -1.08800
O244        O  0.76648728  0.18045253  0.27211762    -0.65500
Ni245      Ni  0.73293587  0.21651309  0.24154235     1.26300
O246        O  0.74367748  0.32616697  0.22448977    -0.65700
O247        O  0.68915244  0.18993175  0.26581653    -0.78000
C248        C  0.72912212  0.18087248  0.16355423     0.85500
O249        O  0.73159734  0.17359372  0.20145383    -0.65200
Ni250      Ni  0.73470634  0.24974120  0.33625623     1.27400
Ni251      Ni  0.77716929  0.29031467  0.25616617     1.26100
H252        H  0.79868953  0.22843715  0.22372841     0.40000
O253        O  0.95685709  0.97388063  0.45597283    -0.73500
O254        O  0.03452333  0.97903308  0.54014980    -0.73500
O255        O  0.95644226  0.97450069  0.53957842    -0.73600
O256        O  0.03494004  0.97940652  0.45594960    -0.73600
O257        O  0.03215926  0.04883789  0.45580383    -0.73600
O258        O  0.95461721  0.04399668  0.53885547    -0.73500
O259        O  0.03239020  0.04849873  0.53951274    -0.73500
O260        O  0.95433638  0.04334095  0.45538962    -0.73600
Ni261      Ni  0.99584595  0.97426768  0.49788952     1.25400
Ni262      Ni  0.99331487  0.04852996  0.49736610     1.25400
C263        C  0.94237187  0.00763432  0.44211848     0.88700
C264        C  0.04629382  0.01455926  0.55390490     0.88600
C265        C  0.94238904  0.00875736  0.55279572     0.88600
C266        C  0.04654874  0.01510758  0.44211196     0.88800
C267        C  0.12065909  0.98542055  0.36578041     0.81200
N268        N  0.09244533  0.98252329  0.39424514    -0.77200
C269        C  0.07701238  0.01794422  0.41021574     0.83600
N270        N  0.09052375  0.05631730  0.39756714    -0.77100
C271        C  0.11824204  0.05940708  0.36858895     0.83700
N272        N  0.13285516  0.02387651  0.35321300    -0.78800
O273        O  0.20647111  0.30182780  0.17237510    -0.80000
O274        O  0.34020533  0.22488445  0.26915276    -0.64600
O275        O  0.24492179  0.23932376  0.21609832    -1.11300
C276        C  0.21916263  0.31722221  0.33597950     1.06900
O277        O  0.30991867  0.20562740  0.32527554    -0.77900
O278        O  0.23498789  0.21477751  0.34057987    -0.65400
Ni279      Ni  0.24063313  0.25655538  0.16085683     1.34900
C280        C  0.20714620  0.20588712  0.31721681     0.85700
O281        O  0.31172883  0.19673514  0.19770904    -0.78400
O282        O  0.27308992  0.21196167  0.14507762    -0.88700
C283        C  0.33978603  0.20621752  0.30353392     0.85200
O284        O  0.28209634  0.29579552  0.15889968    -0.66900
O285        O  0.24727214  0.29878252  0.35224071    -0.86200
C286        C  0.31064359  0.30312031  0.18163859     0.86100
C287        C  0.29964030  0.19085067  0.16130867     1.07600
H288        H  0.28627027  0.29549505  0.27919984     0.39400
O289        O  0.27372726  0.26850154  0.28119746    -1.08800
O290        O  0.20158768  0.22517565  0.28355228    -0.65500
Ni291      Ni  0.22485323  0.27416846  0.25752320     1.26300
O292        O  0.31761297  0.28183368  0.21385960    -0.65700
O293        O  0.20665598  0.30949649  0.30013291    -0.78000
C294        C  0.17739250  0.30106953  0.19541195     0.85500
O295        O  0.17799590  0.28170257  0.22932947    -0.65200
Ni296      Ni  0.27789035  0.25243251  0.33680375     1.27400
Ni297      Ni  0.29376927  0.23307097  0.24008019     1.26100
H298        H  0.23227168  0.21235206  0.21762542     0.40000
C299        C  0.97447414  0.39218176  0.14076692     0.81200
N300        N  0.00693543  0.37559399  0.15570957    -0.77200
C301        C  0.04138833  0.38611453  0.13978135     0.83600
N302        N  0.04302718  0.41386065  0.10816873    -0.77100
C303        C  0.01092175  0.43067464  0.09263448     0.83700
N304        N  0.97678664  0.41961716  0.10900746    -0.78800
C305        C  0.36786723  0.09525618  0.03549451     0.81200
N306        N  0.35086897  0.10489663  0.99976066    -0.77200
C307        C  0.36661418  0.09565264  0.96339311     0.83600
N308        N  0.40060259  0.07648916  0.96265829    -0.77100
C309        C  0.41815502  0.06641495  0.99834663     0.83700
N310        N  0.40188772  0.07613035  0.03476732    -0.78800
C311        C  0.53891666  0.11162844  0.35964757     0.81200
N312        N  0.53706685  0.08429572  0.39158377    -0.77200
C313        C  0.50307429  0.07355967  0.40855648     0.83600
N314        N  0.47083755  0.09071644  0.39358880    -0.77100
C315        C  0.47235800  0.11816432  0.36177997     0.83700
N316        N  0.50645105  0.12832473  0.34520462    -0.78800
C317        C  0.86872221  0.96533089  0.36941414     0.81200
N318        N  0.85526146  0.00124411  0.35362966    -0.77200
C319        C  0.86871198  0.03914406  0.36565277     0.83600
N320        N  0.89681571  0.04106406  0.39446860    -0.77100
C321        C  0.91136588  0.00525327  0.41070006     0.83700
N322        N  0.89674956  0.96731061  0.39834199    -0.78800
C323        C  0.65103688  0.10509465  0.03199516     0.81200
N324        N  0.61439635  0.09154059  0.03276680    -0.77200
C325        C  0.59441375  0.08691718  0.99746549     0.83600
N326        N  0.61133594  0.09557899  0.96119206    -0.77100
C327        C  0.64790344  0.10913030  0.96013141     0.83700
N328        N  0.66743148  0.11381926  0.99551342    -0.78800
C329        C  0.64017158  0.53754037  0.13126047     0.81200
N330        N  0.65242889  0.50062954  0.14610000    -0.77200
C331        C  0.63849709  0.46371100  0.13210236     0.83600
N332        N  0.61131896  0.46369651  0.10235617    -0.77100
C333        C  0.59789531  0.50055223  0.08730854     0.83700
N334        N  0.61285641  0.53751320  0.10156524    -0.78800
C335        C  0.86612917  0.39780526  0.53745948     0.81200
N336        N  0.84861832  0.38843844  0.50165532    -0.77200
C337        C  0.86710419  0.39296370  0.46569201     0.83600
N338        N  0.90353065  0.40721312  0.46561752    -0.77100
C339        C  0.92135226  0.41648798  0.50139630     0.83700
N340        N  0.90250456  0.41184805  0.53712883    -0.78800
C341        C  0.38986191  0.52833161  0.13076738     0.81200
N342        N  0.41841913  0.53023076  0.10271051    -0.77200
C343        C  0.43342143  0.49425102  0.08754172     0.83600
N344        N  0.41939789  0.45642784  0.10071673    -0.77100
C345        C  0.39125392  0.45425539  0.12917727     0.83700
N346        N  0.37675531  0.49032740  0.14363790    -0.78800
C347        C  0.97961024  0.64602869  0.13365334     0.81200
N348        N  0.01195642  0.66483258  0.14730233    -0.77200
C349        C  0.04618547  0.65470768  0.13158631     0.83600
N350        N  0.04767529  0.62477504  0.10201234    -0.77100
C351        C  0.01534640  0.60574697  0.08820136     0.83700
N352        N  0.98157593  0.61663806  0.10408182    -0.78800
C353        C  0.41512990  0.84509537  0.96450095     0.81200
N354        N  0.43888999  0.87888987  0.96324574    -0.77200
C355        C  0.45212229  0.89614894  0.99839053     0.83600
N356        N  0.44133076  0.88002231  0.03477948    -0.77100
C357        C  0.41765323  0.84646669  0.03637589     0.83700
N358        N  0.40454267  0.82941226  0.00123077    -0.78800
C359        C  0.53048786  0.85558815  0.37426217     0.81200
N360        N  0.52878100  0.88506150  0.40392063    -0.77200
C361        C  0.49494259  0.89812379  0.41840047     0.83600
N362        N  0.46218776  0.88131196  0.40285153    -0.77100
C363        C  0.46332956  0.85130287  0.37324224     0.83700
N364        N  0.49764064  0.83904234  0.35928392    -0.78800
C365        C  0.10049509  0.65866186  0.53278329     0.81200
N366        N  0.07738315  0.62445255  0.53348985    -0.77200
C367        C  0.06463541  0.60725032  0.49825057     0.83600
N368        N  0.07510668  0.62412171  0.46198236    -0.77100
C369        C  0.09815087  0.65837693  0.46088591     0.83700
N370        N  0.11089244  0.67515224  0.49635686    -0.78800
C371        C  0.65845233  0.90666623  0.03707180     0.81200
N372        N  0.62451163  0.92573546  0.03606993    -0.77200
C373        C  0.60875002  0.93652735  0.99983431     0.83600
N374        N  0.62684570  0.92829071  0.96451158    -0.77100
C375        C  0.66073522  0.90920419  0.96503938     0.83700
N376        N  0.67630839  0.89830473  0.00143203    -0.78800
C377        C  0.14519900  0.40302680  0.53320886     0.81200
N378        N  0.11167388  0.42309708  0.53390263    -0.77200
C379        C  0.09467177  0.43433788  0.49830786     0.83600
N380        N  0.11090467  0.42471520  0.46198451    -0.77100
C381        C  0.14451018  0.40483269  0.46133483     0.83700
N382        N  0.16137607  0.39416763  0.49691012    -0.78800
C383        C  0.97629917  0.38976815  0.86651010     0.81200
N384        N  0.00867324  0.37523901  0.84996299    -0.77200
C385        C  0.04328658  0.38743060  0.86440489     0.83600
N386        N  0.04513067  0.41490277  0.89622936    -0.77100
C387        C  0.01281485  0.42973761  0.91315815     0.83700
N388        N  0.97861159  0.41694360  0.89819744    -0.78800
C389        C  0.11432280  0.98279844  0.63680359     0.81200
N390        N  0.12786084  0.02095719  0.64843410    -0.77200
C391        C  0.11646217  0.05680808  0.63051987     0.83600
N392        N  0.09046262  0.05444923  0.59952611    -0.77100
C393        C  0.07594669  0.01651026  0.58701578     0.83700
N394        N  0.08828845  0.98066107  0.60568441    -0.78800
C395        C  0.54086482  0.12324161  0.63168269     0.81200
N396        N  0.53799393  0.09498931  0.60081748    -0.77200
C397        C  0.50341335  0.08237199  0.58648554     0.83600
N398        N  0.47161292  0.09875389  0.60295936    -0.77100
C399        C  0.47401841  0.12740178  0.63369704     0.83700
N400        N  0.50884749  0.13914212  0.64788533    -0.78800
C401        C  0.39373531  0.52554240  0.86323743     0.81200
N402        N  0.41981900  0.52863069  0.89418119    -0.77200
C403        C  0.43389678  0.49331019  0.91197452     0.83600
N404        N  0.42103785  0.45500495  0.89905303    -0.77100
C405        C  0.39529107  0.45169536  0.86810987     0.83700
N406        N  0.38196292  0.48693795  0.85066831    -0.78800
C407        C  0.86835243  0.97264993  0.62830584     0.81200
N408        N  0.85694034  0.01013202  0.64253163    -0.77200
C409        C  0.87185099  0.04670685  0.62857253     0.83600
N410        N  0.89912668  0.04580224  0.59920969    -0.77100
C411        C  0.91178374  0.00854459  0.58449681     0.83700
N412        N  0.89597420  0.97191371  0.59896110    -0.78800
C413        C  0.98021846  0.64638499  0.86904022     0.81200
N414        N  0.01293735  0.66160405  0.85248498    -0.77200
C415        C  0.04728508  0.64878923  0.86632612     0.83600
N416        N  0.04847881  0.61989393  0.89702839    -0.77100
C417        C  0.01590960  0.60435249  0.91374070     0.83700
N418        N  0.98204897  0.61781467  0.89962249    -0.78800
C419        C  0.52757815  0.86483979  0.63910433     0.81200
N420        N  0.52611636  0.89316616  0.60841946    -0.77200
C421        C  0.49258418  0.90653617  0.59361251     0.83600
N422        N  0.45964831  0.89086016  0.60973047    -0.77100
C423        C  0.46042789  0.86199114  0.64068298     0.83700
N424        N  0.49471299  0.84945602  0.65520962    -0.78800
C425        C  0.63802367  0.53810473  0.86681282     0.81200
N426        N  0.61120555  0.53815229  0.89697423    -0.77200
C427        C  0.59653232  0.50124075  0.91192717     0.83600
N428        N  0.60983112  0.46438174  0.89725318    -0.77100
C429        C  0.63632344  0.46414493  0.86709702     0.83700
N430        N  0.64996537  0.50095823  0.85218942    -0.78800
C431        C  0.85593621  0.60111661  0.53541278     0.81200
N432        N  0.84017502  0.60861967  0.49839143    -0.77200
C433        C  0.85727218  0.59747782  0.46332760     0.83600
N434        N  0.89116352  0.57875474  0.46511453    -0.77100
C435        C  0.90757690  0.57074819  0.50171798     0.83700
N436        N  0.89004418  0.58189483  0.53703135    -0.78800
C437        C  0.14084038  0.36794318  0.39449536     0.24500
C438        C  0.16190628  0.39164086  0.42290880    -0.23600
C439        C  0.20125618  0.39636444  0.41796812     0.19400
C440        C  0.21977270  0.37467422  0.38723061     0.24500
C441        C  0.19917282  0.34767993  0.36126388    -0.23500
C442        C  0.15941419  0.34597303  0.36382538     0.19400
F443        F  0.13891280  0.31984443  0.33932395    -0.13500
F444        F  0.10283660  0.36259223  0.39894173    -0.15800
F445        F  0.25801773  0.37859024  0.38395831    -0.15800
F446        F  0.22196084  0.42033190  0.44431571    -0.13500
C447        C  0.34799307  0.34382048  0.12881917     0.24500
C448        C  0.33604017  0.33894305  0.16966837    -0.23600
C449        C  0.34487033  0.37101312  0.19754955     0.19400
C450        C  0.36338902  0.40798630  0.18451564     0.24500
C451        C  0.37479897  0.41328109  0.14349345    -0.23500
C452        C  0.36759846  0.38024615  0.11602212     0.19400
F453        F  0.37750903  0.38416479  0.07616001    -0.13500
F454        F  0.34012168  0.31343463  0.10101405    -0.15800
F455        F  0.36967059  0.43899923  0.21206929    -0.15800
F456        F  0.33354828  0.36762787  0.23700199    -0.13500
C457        C  0.40686353  0.14577205  0.37239336     0.24500
C458        C  0.43769357  0.13880717  0.34636274    -0.23600
C459        C  0.43590581  0.15380559  0.30589127     0.19400
C460        C  0.40434973  0.17566397  0.29197613     0.24500
C461        C  0.37356663  0.18301020  0.31809313    -0.23500
C462        C  0.37528991  0.16761522  0.35853500     0.19400
F463        F  0.34679085  0.17441243  0.38532532    -0.13500
F464        F  0.40771211  0.13283094  0.41189703    -0.15800
F465        F  0.40402799  0.18934119  0.25271617    -0.15800
F466        F  0.46455412  0.14689919  0.27933578    -0.13500
C467        C  0.37203645  0.12408637  0.10713051     0.24500
C468        C  0.35013944  0.10967519  0.07380617    -0.23600
C469        C  0.31071441  0.11536347  0.07447475     0.19400
C470        C  0.29424497  0.13929983  0.10478291     0.24500
C471        C  0.31666105  0.15819782  0.13540579    -0.23500
C472        C  0.35535684  0.14823223  0.13785344     0.19400
F473        F  0.37758801  0.16431130  0.16805698    -0.13500
F474        F  0.40995207  0.11778102  0.10833432    -0.15800
F475        F  0.25627637  0.14539254  0.10311099    -0.15800
F476        F  0.28807341  0.09949162  0.04447074    -0.13500
C477        C  0.10778289  0.31692283  0.20185237     0.24500
C478        C  0.14296465  0.32442224  0.18279845    -0.23600
C479        C  0.14476293  0.35411569  0.15093980     0.19400
C480        C  0.11221351  0.37462974  0.13763542     0.24500
C481        C  0.07664836  0.36618553  0.15575365    -0.23500
C482        C  0.07518035  0.33748159  0.18864037     0.19400
F483        F  0.04212204  0.32860330  0.20810490    -0.13500
F484        F  0.10448188  0.28878781  0.23278773    -0.15800
F485        F  0.11585347  0.40251031  0.10653518    -0.15800
F486        F  0.17817676  0.36367507  0.13242610    -0.13500
C487        C  0.17405969  0.16255548  0.37199775     0.24500
C488        C  0.18046878  0.17111011  0.33015582    -0.23600
C489        C  0.16257222  0.14474866  0.30123326     0.19400
C490        C  0.14091368  0.10958120  0.31377850     0.24500
C491        C  0.13543035  0.10049258  0.35556309    -0.23500
C492        C  0.15146733  0.12808980  0.38444675     0.19400
F493        F  0.14723751  0.12024346  0.42493495    -0.13500
F494        F  0.19012583  0.18731687  0.40113213    -0.15800
F495        F  0.12581175  0.08379579  0.28490819    -0.15800
F496        F  0.16767547  0.15163737  0.26068853    -0.13500
C497        C  0.84595053  0.34616721  0.36236348     0.24500
C498        C  0.80659145  0.35090694  0.36005116    -0.23600
C499        C  0.78790543  0.37375359  0.39008038     0.19400
C500        C  0.80815596  0.38986295  0.42337388     0.24500
C501        C  0.84726375  0.38265624  0.42726907    -0.23500
C502        C  0.86627370  0.36206049  0.39571384     0.19400
F503        F  0.90377845  0.35388570  0.39892581    -0.13500
F504        F  0.86405463  0.32270493  0.33424288    -0.15800
F505        F  0.78926093  0.41103729  0.45261480    -0.15800
F506        F  0.74968727  0.37779758  0.38865676    -0.13500
C507        C  0.68824172  0.35953636  0.13463235     0.24500
C508        C  0.70127031  0.35761986  0.17562778    -0.23600
C509        C  0.68900381  0.38858637  0.20290717     0.19400
C510        C  0.66666240  0.42165503  0.18909610     0.24500
C511        C  0.65564304  0.42462605  0.14777737    -0.23500
C512        C  0.66587582  0.39263991  0.12098847     0.19400
F513        F  0.65659125  0.39489945  0.08078382    -0.13500
F514        F  0.69834665  0.33035605  0.10686977    -0.15800
F515        F  0.65640477  0.45146217  0.21615718    -0.15800
F516        F  0.69928085  0.38766097  0.24287841    -0.13500
C517        C  0.67338341  0.13860236  0.14028464     0.24500
C518        C  0.71177887  0.14982081  0.13619030    -0.23600
C519        C  0.73141635  0.13826606  0.10102781     0.19400
C520        C  0.71217934  0.11947410  0.06854292     0.24500
C521        C  0.67256281  0.11327224  0.07018020    -0.23500
C522        C  0.65377236  0.12032338  0.10744703     0.19400
F523        F  0.61595329  0.11291084  0.11118106    -0.13500
F524        F  0.65402558  0.14928148  0.17434605    -0.15800
F525        F  0.73215131  0.10963016  0.03463838    -0.15800
F526        F  0.76887371  0.14780218  0.09710665    -0.13500
C527        C  0.83079864  0.07527772  0.31093874     0.24500
C528        C  0.85035193  0.07726595  0.34868694    -0.23600
C529        C  0.84871867  0.11448991  0.37130655     0.19400
C530        C  0.82671440  0.14791677  0.35764381     0.24500
C531        C  0.80569026  0.14514527  0.32085156    -0.23500
C532        C  0.80877484  0.10859544  0.29730883     0.19400
F533        F  0.78917575  0.10407021  0.26178149    -0.13500
F534        F  0.83230097  0.04059484  0.28720466    -0.15800
F535        F  0.82550507  0.18277523  0.38113279    -0.15800
F536        F  0.86680613  0.11795190  0.40781130    -0.13500
C537        C  0.61172644  0.16184619  0.28851309     0.24500
C538        C  0.64377043  0.16417310  0.31393084    -0.23600
C539        C  0.64238237  0.14487040  0.35256846     0.19400
C540        C  0.60895485  0.12580680  0.36660205     0.24500
C541        C  0.57590524  0.12598328  0.34243836    -0.23500
C542        C  0.57800676  0.14329153  0.30272027     0.19400
F543        F  0.54717824  0.14330502  0.27783052    -0.13500
F544        F  0.61226557  0.17984119  0.25092638    -0.15800
F545        F  0.60854830  0.10946982  0.40488487    -0.15800
F546        F  0.67334090  0.14535645  0.37732726    -0.13500
C547        C  0.89947383  0.34328658  0.21084056     0.24500
C548        C  0.86694673  0.34428940  0.18597879    -0.23600
C549        C  0.86900890  0.36547948  0.14836268     0.19400
C550        C  0.90344269  0.38243579  0.13435371     0.24500
C551        C  0.93686480  0.37873803  0.15775560    -0.23500
C552        C  0.93405475  0.36021074  0.19688323     0.19400
F553        F  0.96490067  0.35772273  0.22157132    -0.13500
F554        F  0.89843455  0.32372007  0.24765940    -0.15800
F555        F  0.90415436  0.40061732  0.09687789    -0.15800
F556        F  0.83761337  0.36902314  0.12459972    -0.13500
C557        C  0.15664036  0.72232800  0.38768141     0.24500
C558        C  0.16412533  0.69257468  0.35737050    -0.23600
C559        C  0.14505551  0.65360352  0.35835467     0.19400
C560        C  0.12082811  0.64359953  0.39047218     0.24500
C561        C  0.11554607  0.67227774  0.42238072    -0.23500
C562        C  0.13242666  0.71233275  0.41976327     0.19400
F563        F  0.12659274  0.74148934  0.44903843    -0.13500
F564        F  0.17407641  0.76051316  0.38744925    -0.15800
F565        F  0.10452173  0.60484946  0.39137373    -0.15800
F566        F  0.15014179  0.62480853  0.32853791    -0.13500
C567        C  0.39735186  0.79151243  0.30032909     0.24500
C568        C  0.36198977  0.80825827  0.30966646    -0.23600
C569        C  0.35928430  0.83545394  0.34326011     0.19400
C570        C  0.39170677  0.84793493  0.36527845     0.24500
C571        C  0.42784018  0.83377644  0.35396534    -0.23500
C572        C  0.42981178  0.80397008  0.32211358     0.19400
F573        F  0.46333549  0.78765281  0.31062260    -0.13500
F574        F  0.40110632  0.76529463  0.26809097    -0.15800
F575        F  0.38755867  0.87487539  0.39684629    -0.15800
F576        F  0.32517644  0.85082500  0.35422754    -0.13500
C577        C  0.36638587  0.85685539  0.13570536     0.24500
C578        C  0.34945523  0.81688499  0.13943034    -0.23600
C579        C  0.35960576  0.78523584  0.11179762     0.19400
C580        C  0.38451552  0.79410646  0.07999031     0.24500
C581        C  0.39932893  0.83472188  0.07485921    -0.23500
C582        C  0.39102810  0.86570601  0.10370101     0.19400
F583        F  0.40461657  0.90546452  0.09957596    -0.13500
F584        F  0.35866977  0.88785868  0.16251908    -0.15800
F585        F  0.39321677  0.76324559  0.05336996    -0.15800
F586        F  0.34441616  0.74602262  0.11436716    -0.13500
C587        C  0.07976729  0.70753342  0.17713603     0.24500
C588        C  0.08148765  0.67467166  0.14831040    -0.23600
C589        C  0.11737613  0.65949537  0.13769388     0.19400
C590        C  0.14997132  0.67412523  0.15766173     0.24500
C591        C  0.14769329  0.70395331  0.18900667    -0.23500
C592        C  0.11253095  0.72180262  0.19741176     0.19400
F593        F  0.10928062  0.75068414  0.22747634    -0.13500
F594        F  0.04625283  0.72491766  0.18718173    -0.15800
F595        F  0.18383293  0.65751547  0.14760935    -0.15800
F596        F  0.12113637  0.62883032  0.10949904    -0.13500
C597        C  0.33005565  0.56600189  0.14452583     0.24500
C598        C  0.36984309  0.56640005  0.14500459    -0.23600
C599        C  0.38892666  0.60129695  0.16212876     0.19400
C600        C  0.36839265  0.63380636  0.18059665     0.24500
C601        C  0.32836529  0.63182743  0.18254297    -0.23500
C602        C  0.30966501  0.59803871  0.16273354     0.19400
F603        F  0.27124673  0.59540469  0.16113144    -0.13500
F604        F  0.31060207  0.53395999  0.12651430    -0.15800
F605        F  0.38776784  0.66631374  0.19780843    -0.15800
F606        F  0.42736623  0.60288248  0.16299035    -0.13500
C607        C  0.20077550  0.91911979  0.32666016     0.24500
C608        C  0.18224786  0.88257855  0.31184169    -0.23600
C609        C  0.14281357  0.87834358  0.31891273     0.19400
C610        C  0.12254030  0.91068548  0.33814915     0.24500
C611        C  0.14116624  0.94800436  0.35037104    -0.23500
C612        C  0.18063759  0.95107438  0.34520993     0.19400
F613        F  0.20020077  0.98549582  0.35828068    -0.13500
F614        F  0.23886745  0.92460765  0.32313379    -0.15800
F615        F  0.08452213  0.90628690  0.34307523    -0.15800
F616        F  0.12360962  0.84359210  0.30624793    -0.13500
C617        C  0.84451835  0.63806532  0.35603419     0.24500
C618        C  0.80524520  0.64377597  0.35555239    -0.23600
C619        C  0.78286295  0.62778125  0.38730501     0.19400
C620        C  0.79981305  0.60978321  0.42128113     0.24500
C621        C  0.83950939  0.60767948  0.42392491    -0.23500
C622        C  0.86170022  0.61991741  0.39011740     0.19400
F623        F  0.90009375  0.61825945  0.39163137    -0.13500
F624        F  0.86646487  0.65395729  0.32555973    -0.15800
F625        F  0.77747006  0.59666179  0.45261878    -0.15800
F626        F  0.74474977  0.63292542  0.38690708    -0.13500
C627        C  0.69578472  0.61164866  0.20018409     0.24500
C628        C  0.70692718  0.64383401  0.17307885    -0.23600
C629        C  0.69249456  0.64244674  0.13262776     0.19400
C630        C  0.66877830  0.60933399  0.11957738     0.24500
C631        C  0.65913250  0.57652083  0.14632082    -0.23500
C632        C  0.67233096  0.57857350  0.18696930     0.19400
F633        F  0.66289615  0.54801047  0.21410883    -0.13500
F634        F  0.70811081  0.61142357  0.23950209    -0.15800
F635        F  0.65708846  0.60825534  0.08004917    -0.15800
F636        F  0.70200428  0.67252150  0.10502282    -0.13500
C637        C  0.65117906  0.87975942  0.10870602     0.24500
C638        C  0.67482659  0.89265534  0.07621616    -0.23600
C639        C  0.71428803  0.88856331  0.08019089     0.19400
C640        C  0.72951577  0.86899612  0.11440316     0.24500
C641        C  0.70568644  0.85374884  0.14535621    -0.23500
C642        C  0.66661631  0.86021252  0.14301446     0.19400
F643        F  0.64316401  0.84406245  0.17204205    -0.13500
F644        F  0.61293463  0.88268307  0.10584901    -0.15800
F645        F  0.76737746  0.86224484  0.11605413    -0.15800
F646        F  0.73808588  0.90194533  0.05022722    -0.13500
C647        C  0.63630404  0.83575928  0.36511071     0.24500
C648        C  0.63853765  0.81596720  0.32695649    -0.23600
C649        C  0.60527323  0.80998862  0.30390435     0.19400
C650        C  0.57024947  0.82273954  0.31914882     0.24500
C651        C  0.56777658  0.84232565  0.35769037    -0.23500
C652        C  0.60148763  0.84907381  0.38019919     0.19400
F653        F  0.60087279  0.86751564  0.41747773    -0.13500
F654        F  0.66804686  0.84216832  0.38796403    -0.15800
F655        F  0.53885323  0.81583473  0.29593105    -0.15800
F656        F  0.60637894  0.79002391  0.26738638    -0.13500
C657        C  0.84106944  0.91987617  0.31410017     0.24500
C658        C  0.85060855  0.92529214  0.35563634    -0.23600
C659        C  0.83752737  0.89533621  0.38385501     0.19400
C660        C  0.81428526  0.86161270  0.37110769     0.24500
C661        C  0.80366733  0.85675424  0.32953927    -0.23500
C662        C  0.81819087  0.88605365  0.30117739     0.19400
F663        F  0.81008042  0.88238596  0.26077431    -0.13500
F664        F  0.85356568  0.94791697  0.28580542    -0.15800
F665        F  0.80100131  0.83471805  0.40003077    -0.15800
F666        F  0.84512317  0.90015113  0.42425433    -0.13500
C667        C  0.93832632  0.67139211  0.19054189     0.24500
C668        C  0.94236049  0.65808545  0.14982978    -0.23600
C669        C  0.91032547  0.65678848  0.12416892     0.19400
C670        C  0.87529231  0.66967198  0.13844838     0.24500
C671        C  0.87142026  0.68413202  0.17866661    -0.23500
C672        C  0.90300013  0.68398736  0.20495327     0.19400
F673        F  0.90008743  0.69783901  0.24395730    -0.13500
F674        F  0.96850895  0.67228486  0.21637438    -0.15800
F675        F  0.84504812  0.66831898  0.11270438    -0.15800
F676        F  0.91313004  0.64480005  0.08455311    -0.13500
C677        C  0.35958597  0.36073245  0.80236341     0.24500
C678        C  0.33607908  0.33870419  0.83010816    -0.23600
C679        C  0.33592055  0.35220623  0.87128883     0.19400
C680        C  0.35691802  0.38750051  0.88379065     0.24500
C681        C  0.37864228  0.41059505  0.85574317    -0.23500
C682        C  0.38022834  0.39664545  0.81498880     0.19400
F683        F  0.40128187  0.41829896  0.78722425    -0.13500
F684        F  0.36131010  0.34879992  0.76267242    -0.15800
F685        F  0.35404694  0.40070922  0.92301749    -0.15800
F686        F  0.31468085  0.33177029  0.89974990    -0.13500
C687        C  0.40891201  0.19586832  0.69735423     0.24500
C688        C  0.37274311  0.18329055  0.68342435    -0.23600
C689        C  0.37014563  0.15159450  0.65363879     0.19400
C690        C  0.40273195  0.13336510  0.63786069     0.24500
C691        C  0.43911197  0.14619076  0.65135283    -0.23500
C692        C  0.44161090  0.17768902  0.68158973     0.19400
F693        F  0.47569785  0.19179157  0.69571597    -0.13500
F694        F  0.41288872  0.22686907  0.72538077    -0.15800
F695        F  0.39827120  0.10319566  0.60907391    -0.15800
F696        F  0.33589810  0.13782174  0.63963525    -0.13500
C697        C  0.14478557  0.12899989  0.61726199     0.24500
C698        C  0.13376701  0.09742465  0.64495387    -0.23600
C699        C  0.14320809  0.10304161  0.68665105     0.19400
C700        C  0.16416288  0.13836612  0.69996931     0.24500
C701        C  0.17716848  0.16856644  0.67184779    -0.23500
C702        C  0.16667655  0.16371583  0.63042537     0.19400
F703        F  0.17822500  0.19247006  0.60236796    -0.13500
F704        F  0.13631020  0.12516157  0.57697436    -0.15800
F705        F  0.17359683  0.14170120  0.74006932    -0.15800
F706        F  0.13259951  0.07386339  0.71469415    -0.13500
C707        C  0.14659126  0.35776822  0.84813415     0.24500
C708        C  0.14366675  0.32899253  0.81553177    -0.23600
C709        C  0.10798344  0.32235154  0.79725778     0.19400
C710        C  0.07585772  0.34209839  0.81234562     0.24500
C711        C  0.07831406  0.36930025  0.84631848    -0.23500
C712        C  0.11444734  0.37757693  0.86329444     0.19400
F713        F  0.11895747  0.40430270  0.89516394    -0.13500
F714        F  0.18062184  0.36681590  0.86579994    -0.15800
F715        F  0.04221745  0.33377813  0.79361360    -0.15800
F716        F  0.10370894  0.29575065  0.76526543    -0.13500
C717        C  0.20305862  0.38705951  0.57316362     0.24500
C718        C  0.16331823  0.38809302  0.57091069    -0.23600
C719        C  0.14161317  0.36972927  0.60234746     0.19400
C720        C  0.15940807  0.34750783  0.63362517     0.24500
C721        C  0.19900592  0.34342037  0.63361057    -0.23500
C722        C  0.22074041  0.36513241  0.60437811     0.19400
F723        F  0.25918509  0.36377513  0.60514858    -0.13500
F724        F  0.22482929  0.40581654  0.54407672    -0.15800
F725        F  0.13776582  0.32709217  0.66176549    -0.15800
F726        F  0.10317832  0.36996617  0.60084170    -0.13500
C727        C  0.29161631  0.14253919  0.89756384     0.24500
C728        C  0.31337443  0.16111234  0.86633614    -0.23600
C729        C  0.35184162  0.15075121  0.86271520     0.19400
C730        C  0.36907271  0.12590210  0.89251523     0.24500
C731        C  0.34789763  0.11094222  0.92599141    -0.23500
C732        C  0.30858417  0.11735850  0.92669584     0.19400
F733        F  0.28666606  0.10098351  0.95695577    -0.13500
F734        F  0.25397281  0.14995289  0.90094645    -0.15800
F735        F  0.40692171  0.11951210  0.89030901    -0.15800
F736        F  0.37346217  0.16721135  0.83226155    -0.13500
C737        C  0.86535823  0.38205599  0.61229420     0.24500
C738        C  0.84567388  0.39237185  0.57626397    -0.23600
C739        C  0.80581739  0.39341597  0.57681462     0.19400
C740        C  0.78605244  0.37924602  0.61099839     0.24500
C741        C  0.80585263  0.36493883  0.64524708    -0.23500
C742        C  0.84539317  0.36855880  0.64667890     0.19400
F743        F  0.86475813  0.35373249  0.67936150    -0.13500
F744        F  0.90377281  0.38060801  0.61303246    -0.15800
F745        F  0.74770400  0.37533518  0.60912248    -0.15800
F746        F  0.78589095  0.40554521  0.54342218    -0.13500
C747        C  0.69374186  0.36542672  0.86875588     0.24500
C748        C  0.70253661  0.36030524  0.82688040    -0.23600
C749        C  0.68417963  0.38617229  0.79829828     0.19400
C750        C  0.66039089  0.41816526  0.81136314     0.24500
C751        C  0.65394486  0.42488669  0.85317456    -0.23500
C752        C  0.66960692  0.39717860  0.88159639     0.19400
F753        F  0.66360971  0.40253016  0.92217111    -0.13500
F754        F  0.70955961  0.34084422  0.89779711    -0.15800
F755        F  0.64391123  0.44308018  0.78304744    -0.15800
F756        F  0.68956147  0.38107575  0.75760359    -0.13500
C757        C  0.82693534  0.15406571  0.63243913     0.24500
C758        C  0.81222749  0.15469444  0.67271813    -0.23600
C759        C  0.82256111  0.12215823  0.69939833     0.19400
C760        C  0.84406748  0.08864124  0.68550297     0.24500
C761        C  0.85622750  0.08653246  0.64461772    -0.23500
C762        C  0.84889590  0.12058253  0.61876745     0.19400
F763        F  0.86104468  0.12042712  0.57947765    -0.13500
F764        F  0.81914165  0.18510787  0.60551940    -0.15800
F765        F  0.85256610  0.05765208  0.71219561    -0.15800
F766        F  0.81094244  0.12181298  0.73886303    -0.13500
C767        C  0.60756213  0.14776391  0.61898234     0.24500
C768        C  0.57844186  0.13799918  0.64669522    -0.23600
C769        C  0.58488839  0.14464628  0.68865657     0.19400
C770        C  0.61930298  0.16214755  0.70249562     0.24500
C771        C  0.64764079  0.17430919  0.67449061    -0.23500
C772        C  0.64162926  0.16595478  0.63262882     0.19400
F773        F  0.66858962  0.17589993  0.60458396    -0.13500
F774        F  0.60236091  0.14175578  0.57830228    -0.15800
F775        F  0.62411736  0.16881052  0.74312389    -0.15800
F776        F  0.55773755  0.13431830  0.71633803    -0.13500
C777        C  0.72381835  0.13183197  0.88211880     0.24500
C778        C  0.70374091  0.15582578  0.85388861    -0.23600
C779        C  0.66453053  0.16040333  0.85816410     0.19400
C780        C  0.64564865  0.14229600  0.89129551     0.24500
C781        C  0.66612141  0.12060901  0.92125233    -0.23500
C782        C  0.70518337  0.11439132  0.91575291     0.19400
F783        F  0.72569046  0.09328791  0.94396739    -0.13500
F784        F  0.76202699  0.12863588  0.87909280    -0.15800
F785        F  0.60817539  0.14965944  0.89619811    -0.15800
F786        F  0.64528030  0.18586522  0.83249586    -0.13500
C787        C  0.87389876  0.35187403  0.86453774     0.24500
C788        C  0.86926767  0.33940216  0.82357942    -0.23600
C789        C  0.89938249  0.34612490  0.79621388     0.19400
C790        C  0.93391330  0.36338833  0.80990996     0.24500
C791        C  0.93890456  0.37461936  0.85119712    -0.23500
C792        C  0.90819810  0.36950134  0.87813783     0.19400
F793        F  0.91180019  0.37974487  0.91820056    -0.13500
F794        F  0.84522130  0.34656660  0.89169807    -0.15800
F795        F  0.96252271  0.36896360  0.78272771    -0.15800
F796        F  0.89614450  0.33396977  0.75667353    -0.13500
C797        C  0.16417004  0.72118492  0.60324421     0.24500
C798        C  0.16580107  0.69460894  0.63740337    -0.23600
C799        C  0.14226116  0.65874271  0.63884927     0.19400
C800        C  0.11937781  0.64816454  0.60570092     0.24500
C801        C  0.11934606  0.67345581  0.57043199    -0.23500
C802        C  0.14105588  0.71084652  0.57019098     0.19400
F803        F  0.14102365  0.73702300  0.53750784    -0.13500
F804        F  0.18617502  0.75635506  0.60085138    -0.15800
F805        F  0.09874543  0.61200618  0.60776052    -0.15800
F806        F  0.14163647  0.63336769  0.67215350    -0.13500
C807        C  0.35586944  0.84808911  0.66991200     0.24500
C808        C  0.35692261  0.81582357  0.69944826    -0.23600
C809        C  0.39196338  0.79687148  0.70708002     0.19400
C810        C  0.42511808  0.81101352  0.68737463     0.24500
C811        C  0.42440978  0.84463212  0.65918954    -0.23500
C812        C  0.38893249  0.86208561  0.65003302     0.19400
F813        F  0.38602552  0.89381818  0.62269029    -0.13500
F814        F  0.32282686  0.86713154  0.66069091    -0.15800
F815        F  0.45806351  0.79189319  0.69673054    -0.15800
F816        F  0.39473308  0.76575792  0.73512663    -0.13500
C817        C  0.15048659  0.65840025  0.83272444     0.24500
C818        C  0.14983745  0.69257990  0.80529728    -0.23600
C819        C  0.11561621  0.71416037  0.80072259     0.19400
C820        C  0.08273061  0.70075196  0.82129803     0.24500
C821        C  0.08297658  0.66520126  0.84700140    -0.23500
C822        C  0.11762501  0.64480898  0.85296483     0.19400
F823        F  0.11976537  0.61047779  0.87724938    -0.13500
F824        F  0.18284323  0.63707387  0.83950559    -0.15800
F825        F  0.05051566  0.72257537  0.81545994    -0.15800
F826        F  0.11337105  0.74750005  0.77518295    -0.13500
C827        C  0.34317668  0.59203060  0.78422153     0.24500
C828        C  0.33683792  0.62959539  0.80508378    -0.23600
C829        C  0.35223413  0.63437798  0.84464783     0.19400
C830        C  0.37220839  0.60147548  0.86337361     0.24500
C831        C  0.37709107  0.56313233  0.84285174    -0.23500
C832        C  0.36297989  0.55950786  0.80260744     0.19400
F833        F  0.36781455  0.52396916  0.78078050    -0.13500
F834        F  0.32947651  0.58638635  0.74578487    -0.15800
F835        F  0.38474269  0.60633948  0.90233505    -0.15800
F836        F  0.34580427  0.66971065  0.86620953    -0.13500
C837        C  0.36712467  0.84752270  0.86150588     0.24500
C838        C  0.34260762  0.81250242  0.86442355    -0.23600
C839        C  0.34596720  0.78534095  0.89798862     0.19400
C840        C  0.37195002  0.79415221  0.92895890     0.24500
C841        C  0.39459760  0.83086488  0.92755491    -0.23500
C842        C  0.39283253  0.85664995  0.89271545     0.19400
F843        F  0.41450391  0.89196512  0.88942939    -0.13500
F844        F  0.36601655  0.87346466  0.82866175    -0.15800
F845        F  0.37379140  0.76728666  0.96104171    -0.15800
F846        F  0.32298389  0.75108938  0.90195084    -0.13500
C847        C  0.15032674  0.87191041  0.66031754     0.24500
C848        C  0.16882104  0.87847431  0.69817196    -0.23600
C849        C  0.16516638  0.91763132  0.71697124     0.19400
C850        C  0.14552782  0.94991407  0.69799648     0.24500
C851        C  0.12923186  0.94488199  0.65876879    -0.23500
C852        C  0.13073198  0.90478652  0.64078223     0.19400
F853        F  0.11498910  0.89786672  0.60349035    -0.13500
F854        F  0.15321402  0.83462062  0.64100333    -0.15800
F855        F  0.14312430  0.98666613  0.71834618    -0.15800
F856        F  0.18140938  0.92517430  0.75395478    -0.13500
C857        C  0.78468936  0.65592839  0.60174887     0.24500
C858        C  0.80215600  0.65535077  0.64013605    -0.23600
C859        C  0.83500660  0.63189974  0.64583168     0.19400
C860        C  0.85202302  0.61231377  0.61228932     0.24500
C861        C  0.83615179  0.61601177  0.57272908    -0.23500
C862        C  0.80127472  0.63673207  0.56853617     0.19400
F863        F  0.78356262  0.64060913  0.53189761    -0.13500
F864        F  0.75214726  0.67725608  0.59585776    -0.15800
F865        F  0.88476518  0.59154809  0.61837656    -0.15800
F866        F  0.85204149  0.63051312  0.68302840    -0.13500
C867        C  0.68892985  0.64449920  0.86564987     0.24500
C868        C  0.70453058  0.64611913  0.82577481    -0.23600
C869        C  0.69470679  0.61334854  0.79874642     0.19400
C870        C  0.67136965  0.57970987  0.81148628     0.24500
C871        C  0.65729261  0.57734387  0.85177045    -0.23500
C872        C  0.66584473  0.61062563  0.87837768     0.19400
F873        F  0.65361181  0.60942174  0.91762246    -0.13500
F874        F  0.69667541  0.67519050  0.89315070    -0.15800
F875        F  0.66274339  0.54906921  0.78419055    -0.15800
F876        F  0.70817555  0.61318963  0.75997367    -0.13500
C877        C  0.57280343  0.84364118  0.69494585     0.24500
C878        C  0.56500590  0.85014488  0.65327696    -0.23600
C879        C  0.59391250  0.84374157  0.62464963     0.19400
C880        C  0.62945972  0.83003864  0.63711293     0.24500
C881        C  0.63740783  0.82285725  0.67869704    -0.23500
C882        C  0.60884632  0.83063616  0.70763876     0.19400
F883        F  0.61534614  0.82453688  0.74806735    -0.13500
F884        F  0.54577917  0.85062931  0.72341293    -0.15800
F885        F  0.65626910  0.82397152  0.60818874    -0.15800
F886        F  0.58749570  0.84965695  0.58414773    -0.13500
C887        C  0.73359734  0.86931506  0.89177241     0.24500
C888        C  0.71096726  0.85988981  0.85769909    -0.23600
C889        C  0.67331205  0.87266579  0.85633855     0.19400
C890        C  0.65723474  0.89114071  0.89057974     0.24500
C891        C  0.67902283  0.89732868  0.92640790    -0.23500
C892        C  0.71788494  0.88825185  0.92581562     0.19400
F893        F  0.74032077  0.89564162  0.95886944    -0.14500
F894        F  0.77031634  0.85735957  0.89311516    -0.15800
F895        F  0.61962328  0.89930913  0.88969849    -0.15800
F896        F  0.65111911  0.86328891  0.82355213    -0.13500
C897        C  0.80914718  0.90030349  0.69718314     0.24500
C898        C  0.80329855  0.86461018  0.67271837    -0.23600
C899        C  0.82200504  0.86344936  0.63449581     0.19400
C900        C  0.84454636  0.89743657  0.62073058     0.24500
C901        C  0.84884823  0.93384065  0.64446609    -0.23500
C902        C  0.83125286  0.93431596  0.68324910     0.19400
F903        F  0.83509649  0.96806926  0.70805999    -0.13500
F904        F  0.79261546  0.90309030  0.73442864    -0.15800
F905        F  0.86081231  0.89523703  0.58332450    -0.15800
F906        F  0.81839960  0.82944282  0.60997892    -0.13500
C907        C  0.93757181  0.67214180  0.81273153     0.24500
C908        C  0.94273322  0.66024688  0.85381542    -0.23600
C909        C  0.91141536  0.66108236  0.88031260     0.19400
C910        C  0.87605773  0.67404191  0.86630132     0.24500
C911        C  0.87088152  0.68611321  0.82530818    -0.23500
C912        C  0.90191441  0.68445900  0.79851792     0.19400
F913        F  0.89817664  0.69632029  0.75890073    -0.13500
F914        F  0.96695049  0.67157678  0.78611364    -0.15800
F915        F  0.84677635  0.67483846  0.89307669    -0.15800
F916        F  0.91516367  0.65066309  0.92032523    -0.13500
loop_ 
_geom_bond_atom_site_label_1 
_geom_bond_atom_site_label_2 
_geom_bond_distance 
_geom_bond_site_symmetry_2 
_ccdc_geom_bond_type 
O1           Ni9   1.925   1_545  S
O1           C11   1.282       .  A
O2           Ni9   1.921       .  S
O2           C12   1.284       .  A
O3           Ni9   1.914       .  S
O3           C13   1.281       .  A
O4           Ni9   1.916   1_545  S
O4           C14   1.280       .  A
O5          Ni10   1.938   1_545  S
O5           C14   1.285       .  A
O6          Ni10   1.939       .  S
O6           C13   1.285       .  A
O7          Ni10   1.931       .  S
O7           C12   1.282       .  A
O8          Ni10   1.930   1_545  S
O8           C11   1.283       .  A
Ni9         Ni10   2.387       .  S
C11         C313   1.480       .  S
C12         C421   1.480       .  S
C13         C361   1.480       .  S
C14         C397   1.480       .  S
O15         Ni23   1.900   1_655  S
O15          C25   1.277       .  A
O16         Ni23   1.899       .  S
O16          C26   1.277       .  A
O17         Ni23   1.910       .  S
O17          C27   1.280       .  A
O18         Ni23   1.904   1_655  S
O18          C28   1.281       .  A
O19         Ni24   1.912   1_655  S
O19          C28   1.278       .  A
O20         Ni24   1.915       .  S
O20          C27   1.281       .  A
O21         Ni24   1.907       .  S
O21          C26   1.280       .  A
O22         Ni24   1.907   1_655  S
O22          C25   1.281       .  A
Ni23        Ni24   2.395       .  S
C25         C339   1.454       .  S
C26         C367   1.451       .  S
C27         C379   1.462       .  S
C28         C435   1.457       .  S
O29         Ni37   1.942   1_556  S
O29          C39   1.285       .  A
O30         Ni37   1.943       .  S
O30          C40   1.285       .  A
O31         Ni37   1.944       .  S
O31          C41   1.286       .  A
O32         Ni37   1.945   1_556  S
O32          C42   1.286       .  A
O33         Ni38   1.930   1_556  S
O33          C42   1.283       .  A
O34         Ni38   1.931       .  S
O34          C41   1.283       .  A
O35         Ni38   1.937       .  S
O35          C40   1.285       .  A
O36         Ni38   1.937   1_556  S
O36          C39   1.285       .  A
Ni37        Ni38   2.382       .  S
C39         C427   1.496       .  S
C40         C343   1.496       .  S
C41         C333   1.494       .  S
C42         C403   1.494       .  S
O43         Ni51   1.916   1_556  S
O43          C53   1.282   1_655  A
O44         Ni51   1.912       .  S
O44          C54   1.281   1_655  A
O45         Ni51   1.913   1_556  S
O45          C55   1.281   1_655  A
O46         Ni51   1.916       .  S
O46          C56   1.280   1_655  A
O47         Ni52   1.937       .  S
O47          C56   1.286       .  A
O48         Ni52   1.934   1_556  S
O48          C55   1.284       .  A
O49         Ni52   1.927       .  S
O49          C54   1.282       .  A
O50         Ni52   1.929   1_556  S
O50          C53   1.282       .  A
Ni51        Ni52   2.388   1_655  S
C53         C387   1.475       .  S
C54         C351   1.471       .  S
C55         C417   1.476       .  S
C56         C303   1.480       .  S
O57         Ni65   1.905       .  S
O57          C67   1.279       .  A
O58         Ni65   1.904   1_565  S
O58          C68   1.278       .  A
O59         Ni65   1.920       .  S
O59          C69   1.282       .  A
O60         Ni65   1.910   1_565  S
O60          C70   1.281       .  A
O61         Ni66   1.897   1_565  S
O61          C70   1.277   1_554  A
O62         Ni66   1.907       .  S
O62          C69   1.279   1_554  A
O63         Ni66   1.901   1_565  S
O63          C68   1.279   1_554  A
O64         Ni66   1.905       .  S
O64          C67   1.279   1_554  A
Ni65        Ni66   2.395   1_556  S
C67         C325   1.457       .  S
C68         C355   1.450       .  S
C69         C309   1.464       .  S
C70         C373   1.450       .  S
O71         Ni77   1.912       .  S
O71          C92   1.268       .  A
O72         Ni95   1.918       .  S
O72          C81   1.270       .  A
O73         Ni77   1.901       .  S
O73         Ni95   1.901       .  S
O73         Ni89   1.919       .  S
O73          H96   0.966       .  S
C74          O91   1.280       .  A
C74          O83   1.278       .  A
C74         C881   1.490       .  S
O75         Ni94   1.913       .  S
O75          C81   1.269       .  A
O76         Ni94   1.913       .  S
O76          C78   1.267       .  A
Ni77         O80   1.918       .  S
Ni77         O82   1.911       .  S
C78          O88   1.277       .  A
C78         C898   1.508       .  S
O79         Ni95   1.928       .  S
O79          C85   1.279       .  A
O80          C85   1.276       .  A
C81         C858   1.469       .  S
O82          C84   1.268       .  A
O83         Ni94   1.921       .  S
C84          O90   1.279       .  A
C84         C868   1.511       .  S
C85         C911   1.485       .  S
H86          O87   0.966       .  S
O87         Ni95   1.922       .  S
O87         Ni89   1.897       .  S
O87         Ni94   1.897       .  S
O88         Ni89   1.949       .  S
Ni89         O93   1.904       .  S
Ni89         O91   1.934       .  S
O90         Ni95   1.955       .  S
C92          O93   1.266       .  A
C92         C888   1.454       .  S
O97        Ni103   1.924       .  S
O97         C118   1.270       .  A
O98        Ni121   1.933       .  S
O98         C107   1.272       .  A
O99        Ni103   1.920       .  S
O99        Ni121   1.923       .  S
O99        Ni115   1.908       .  S
O99         H122   0.968       .  S
C100        O117   1.262       .  A
C100        O109   1.272       .  A
C100        C838   1.472       .  S
O101       Ni120   1.929       .  S
O101        C107   1.272       .  A
O102       Ni120   1.901       .  S
O102        C104   1.270       .  A
Ni103       O106   1.924       .  S
Ni103       O108   1.898       .  S
C104        O114   1.285       .  A
C104        C808   1.502       .  S
O105       Ni121   1.880       .  S
O105        C111   1.262       .  A
O106        C111   1.270       .  A
C107        C848   1.501       .  S
O108        C110   1.269       .  A
O109       Ni120   1.929       .  S
C110        O116   1.284       .  A
C110        C818   1.499       .  S
C111        C798   1.468       .  S
H112        O113   0.965       .  S
O113       Ni121   1.908       .  S
O113       Ni115   1.922       .  S
O113       Ni120   1.919       .  S
O114       Ni115   1.971       .  S
Ni115       O119   1.931       .  S
Ni115       O117   1.882       .  S
O116       Ni121   1.967       .  S
C118        O119   1.272       .  A
C118        C828   1.495       .  S
O123       Ni129   1.911       .  S
O123        C144   1.269       .  A
O124       Ni147   1.905       .  S
O124        C133   1.268       .  A
O125       Ni129   1.898       .  S
O125       Ni147   1.896       .  S
O125       Ni141   1.918       .  S
O125        H148   0.967       .  S
C126        O143   1.280       .  A
C126        O135   1.276       .  A
C126        C788   1.483       .  S
O127       Ni146   1.914       .  S
O127        C133   1.268       .  A
O128       Ni146   1.907       .  S
O128        C130   1.267       .  A
Ni129       O132   1.917       .  S
Ni129       O134   1.910       .  S
C130        O140   1.276       .  A
C130        C748   1.502       .  S
O131       Ni147   1.929       .  S
O131        C137   1.278       .  A
O132        C137   1.275       .  A
C133        C778   1.454       .  S
O134        C136   1.268       .  A
O135       Ni146   1.916       .  S
C136        O142   1.279       .  A
C136        C758   1.506       .  S
C137        C771   1.489       .  S
H138        O139   0.965       .  S
O139       Ni147   1.915       .  S
O139       Ni141   1.894       .  S
O139       Ni146   1.900       .  S
O140       Ni141   1.943       .  S
Ni141       O145   1.902       .  S
Ni141       O143   1.934       .  S
O142       Ni147   1.948       .  S
C144        O145   1.266       .  A
C144        C741   1.451       .  S
O149       Ni155   1.931       .  S
O149        C170   1.274       .  A
O150       Ni173   1.917       .  S
O150        C159   1.274       .  A
O151       Ni155   1.894       .  S
O151       Ni173   1.903       .  S
O151       Ni167   1.902       .  S
O151        H174   0.975       .  S
C152        O169   1.277       .  A
C152        O161   1.278       .  A
C152        C728   1.476       .  S
O153       Ni172   1.930       .  S
O153        C159   1.272       .  A
O154       Ni172   1.903       .  S
O154        C156   1.268       .  A
Ni155       O158   1.915       .  S
Ni155       O160   1.915       .  S
C156        O166   1.280       .  A
C156        C678   1.504       .  S
O157       Ni173   1.913       .  S
O157        C163   1.276       .  A
O158        C163   1.278       .  A
C159        C708   1.494       .  S
O160        C162   1.270       .  A
O161       Ni172   1.914       .  S
C162        O168   1.280       .  A
C162        C701   1.500       .  S
C163        C721   1.469       .  S
H164        O165   0.960       .  S
O165       Ni173   1.900       .  S
O165       Ni167   1.905       .  S
O165       Ni172   1.890       .  S
O166       Ni167   1.959       .  S
Ni167       O171   1.917       .  S
Ni167       O169   1.917       .  S
O168       Ni173   1.960       .  S
C170        O171   1.273       .  A
C170        C688   1.491       .  S
O175       Ni181   1.917       .  S
O175        C196   1.269       .  A
O176       Ni199   1.911       .  S
O176        C185   1.268       .  A
O177       Ni181   1.906       .  S
O177       Ni199   1.902       .  S
O177       Ni193   1.916       .  S
O177        H200   0.964       .  S
C178        O195   1.275       .  A
C178        O187   1.274       .  A
C178        C671   1.474       .  S
O179       Ni198   1.910       .  S
O179        C185   1.266       .  A
O180       Ni198   1.905       .  S
O180        C182   1.266       .  A
Ni181       O184   1.922       .  S
Ni181       O186   1.906       .  S
C182        O192   1.275       .  A
C182        C628   1.501       .  S
O183       Ni199   1.926       .  S
O183        C189   1.278       .  A
O184        C189   1.276       .  A
C185        C641   1.457       .  S
O186        C188   1.267       .  A
O187       Ni198   1.914       .  S
C188        O194   1.278       .  A
C188        C661   1.504       .  S
C189        C648   1.480       .  S
H190        O191   0.968       .  S
O191       Ni199   1.918       .  S
O191       Ni193   1.900       .  S
O191       Ni198   1.907       .  S
O192       Ni193   1.940       .  S
Ni193       O197   1.901       .  S
Ni193       O195   1.921       .  S
O194       Ni199   1.951       .  S
C196        O197   1.264       .  A
C196        C618   1.455       .  S
O201       Ni207   1.928       .  S
O201        C222   1.271       .  A
O202       Ni225   1.933       .  S
O202        C211   1.272       .  A
O203       Ni207   1.907       .  S
O203       Ni225   1.925       .  S
O203       Ni219   1.908       .  S
O203        H226   0.966       .  S
C204        O221   1.271       .  A
C204        O213   1.276       .  A
C204        C558   1.468       .  S
O205       Ni224   1.934       .  S
O205        C211   1.271       .  A
O206       Ni224   1.891       .  S
O206        C208   1.267       .  A
Ni207       O210   1.923       .  S
Ni207       O212   1.898       .  S
C208        O218   1.276       .  A
C208        C591   1.479       .  S
O209       Ni225   1.883       .  S
O209        C215   1.265       .  A
O210        C215   1.275       .  A
C211        C601   1.507       .  S
O212        C214   1.268       .  A
O213       Ni224   1.917       .  S
C214        O220   1.278       .  A
C214        C568   1.484       .  S
C215        C578   1.474       .  S
H216        O217   0.966       .  S
O217       Ni225   1.895       .  S
O217       Ni219   1.921       .  S
O217       Ni224   1.905       .  S
O218       Ni219   1.940       .  S
Ni219       O223   1.939       .  S
Ni219       O221   1.891       .  S
O220       Ni225   1.946       .  S
C222        O223   1.274       .  A
C222        C608   1.511       .  S
O227       Ni233   1.920       .  S
O227        C248   1.270       .  A
O228       Ni251   1.905       .  S
O228        C237   1.266       .  A
O229       Ni233   1.914       .  S
O229       Ni251   1.912       .  S
O229       Ni245   1.925       .  S
O229        H252   0.965       .  S
C230        O247   1.276       .  A
C230        O239   1.273       .  A
C230        C538   1.479       .  S
O231       Ni250   1.916       .  S
O231        C237   1.268       .  A
O232       Ni250   1.905       .  S
O232        C234   1.267       .  A
Ni233       O236   1.925       .  S
Ni233       O238   1.902       .  S
C234        O244   1.276       .  A
C234        C531   1.498       .  S
O235       Ni251   1.921       .  S
O235        C241   1.272       .  A
O236        C241   1.273       .  A
C237        C498   1.458       .  S
O238        C240   1.268       .  A
O239       Ni250   1.913       .  S
C240        O246   1.281       .  A
C240        C508   1.503       .  S
C241        C548   1.486       .  S
H242        O243   0.967       .  S
O243       Ni251   1.912       .  S
O243       Ni245   1.905       .  S
O243       Ni250   1.914       .  S
O244       Ni245   1.942       .  S
Ni245       O249   1.902       .  S
Ni245       O247   1.924       .  S
O246       Ni251   1.956       .  S
C248        O249   1.265       .  A
C248        C518   1.464       .  S
O253       Ni261   1.940       .  S
O253        C263   1.284   1_565  A
O254       Ni261   1.945   1_455  S
O254        C264   1.285   1_565  A
O255       Ni261   1.953       .  S
O255        C265   1.287   1_565  A
O256       Ni261   1.955   1_455  S
O256        C266   1.289   1_565  A
O257       Ni262   1.935   1_455  S
O257        C266   1.283       .  A
O258       Ni262   1.934       .  S
O258        C265   1.284       .  A
O259       Ni262   1.948   1_455  S
O259        C264   1.287       .  A
O260       Ni262   1.947       .  S
O260        C263   1.287       .  A
Ni261      Ni262   2.380   1_565  S
C263        C321   1.501       .  S
C264        C393   1.505       .  S
C265        C411   1.501       .  S
C266        C269   1.503       .  S
C267        C611   1.499       .  S
C267        N268   1.368       .  A
C267        N272   1.360   1_565  A
N268        C269   1.372   1_565  A
C269        N270   1.373       .  A
N270        C271   1.368       .  A
C271        C491   1.500       .  S
C271        N272   1.355       .  A
O273       Ni279   1.940       .  S
O273        C294   1.276       .  A
O274       Ni297   1.914       .  S
O274        C283   1.274       .  A
O275       Ni279   1.897       .  S
O275       Ni297   1.906       .  S
O275       Ni291   1.904       .  S
O275        H298   0.966       .  S
C276        O293   1.276       .  A
C276        O285   1.277       .  A
C276        C441   1.471       .  S
O277       Ni296   1.931       .  S
O277        C283   1.274       .  A
O278       Ni296   1.923       .  S
O278        C280   1.272       .  A
Ni279       O282   1.918       .  S
Ni279       O284   1.913       .  S
C280        O290   1.279       .  A
C280        C488   1.506       .  S
O281       Ni297   1.928       .  S
O281        C287   1.278       .  A
O282        C287   1.278       .  A
C283        C461   1.492       .  S
O284        C286   1.270       .  A
O285       Ni296   1.920       .  S
C286        O292   1.280       .  A
C286        C448   1.495       .  S
C287        C471   1.484       .  S
H288        O289   0.966       .  S
O289       Ni297   1.908       .  S
O289       Ni291   1.900       .  S
O289       Ni296   1.897       .  S
O290       Ni291   1.953       .  S
Ni291       O295   1.910       .  S
Ni291       O293   1.917       .  S
O292       Ni297   1.958       .  S
C294        O295   1.271       .  A
C294        C478   1.494       .  S
C299        C551   1.497       .  S
C299        N300   1.360   1_655  A
C299        N304   1.361       .  A
N300        C301   1.362       .  A
C301        C481   1.500       .  S
C301        N302   1.363       .  A
N302        C303   1.360       .  A
C303        N304   1.361   1_455  A
C305        C468   1.482       .  S
C305        N306   1.351   1_554  A
C305        N310   1.358       .  A
N306        C307   1.352       .  A
C307        C731   1.476       .  S
C307        N308   1.357       .  A
N308        C309   1.362       .  A
C309        N310   1.364   1_556  A
C311        C541   1.489       .  S
C311        N312   1.363       .  A
C311        N316   1.356       .  A
N312        C313   1.362       .  A
C313        N314   1.361       .  A
N314        C315   1.362       .  A
C315        C458   1.487       .  S
C315        N316   1.356       .  A
C317        C658   1.492       .  S
C317        N318   1.352   1_565  A
C317        N322   1.368       .  A
N318        C319   1.353       .  A
C319        C528   1.496       .  S
C319        N320   1.367       .  A
N320        C321   1.370       .  A
C321        N322   1.372   1_545  A
C323        C521   1.482       .  S
C323        N324   1.357       .  A
C323        N328   1.356   1_554  A
N324        C325   1.359   1_554  A
C325        N326   1.357       .  A
N326        C327   1.355       .  A
C327        C781   1.472       .  S
C327        N328   1.353       .  A
C329        C631   1.489       .  S
C329        N330   1.354       .  A
C329        N334   1.367       .  A
N330        C331   1.352       .  A
C331        C511   1.489       .  S
C331        N332   1.365       .  A
N332        C333   1.369       .  A
C333        N334   1.369       .  A
C335        C738   1.472       .  S
C335        N336   1.355       .  A
C335        N340   1.353       .  A
N336        C337   1.355       .  A
C337        C501   1.473       .  S
C337        N338   1.357       .  A
N338        C339   1.359       .  A
C339        N340   1.355       .  A
C341        C598   1.495       .  S
C341        N342   1.367       .  A
C341        N346   1.360       .  A
N342        C343   1.371       .  A
C343        N344   1.369       .  A
N344        C345   1.365       .  A
C345        C451   1.500       .  S
C345        N346   1.358       .  A
C347        C668   1.477       .  S
C347        N348   1.356   1_655  A
C347        N352   1.354       .  A
N348        C349   1.360       .  A
C349        C588   1.493       .  S
C349        N350   1.365       .  A
N350        C351   1.360       .  A
C351        N352   1.354   1_455  A
C353        C841   1.477       .  S
C353        N354   1.357       .  A
C353        N358   1.354   1_556  A
N354        C355   1.356       .  A
C355        N356   1.351   1_556  A
N356        C357   1.350       .  A
C357        C581   1.464       .  S
C357        N358   1.352       .  A
C359        C651   1.494       .  S
C359        N360   1.357       .  A
C359        N364   1.357       .  A
N360        C361   1.360       .  A
C361        N362   1.364       .  A
N362        C363   1.367       .  A
C363        C571   1.501       .  S
C363        N364   1.361       .  A
C365        C801   1.474       .  S
C365        N366   1.354       .  A
C365        N370   1.353       .  A
N366        C367   1.352       .  A
C367        N368   1.354       .  A
N368        C369   1.354       .  A
C369        C561   1.469       .  S
C369        N370   1.353       .  A
C371        C638   1.477       .  S
C371        N372   1.354       .  A
C371        N376   1.358       .  A
N372        C373   1.356   1_554  A
C373        N374   1.352       .  A
N374        C375   1.353       .  A
C375        C891   1.476       .  S
C375        N376   1.358   1_556  A
C377        C718   1.471       .  S
C377        N378   1.357       .  A
C377        N382   1.353       .  A
N378        C379   1.360       .  A
C379        N380   1.360       .  A
N380        C381   1.356       .  A
C381        C438   1.468       .  S
C381        N382   1.352       .  A
C383        C791   1.484       .  S
C383        N384   1.356   1_655  A
C383        N388   1.357       .  A
N384        C385   1.360       .  A
C385        C711   1.499       .  S
C385        N386   1.366       .  A
N386        C387   1.363       .  A
C387        N388   1.358   1_455  A
C389        C851   1.511       .  S
C389        N390   1.358   1_565  A
C389        N394   1.371       .  A
N390        C391   1.354       .  A
C391        C698   1.503       .  S
C391        N392   1.367       .  A
N392        C393   1.372       .  A
C393        N394   1.376   1_545  A
C395        C768   1.483       .  S
C395        N396   1.360       .  A
C395        N400   1.358       .  A
N396        C397   1.361       .  A
C397        N398   1.361       .  A
N398        C399   1.364       .  A
C399        C691   1.499       .  S
C399        N400   1.360       .  A
C401        C831   1.502       .  S
C401        N402   1.369       .  A
C401        N406   1.360       .  A
N402        C403   1.371       .  A
C403        N404   1.367       .  A
N404        C405   1.362       .  A
C405        C681   1.487       .  S
C405        N406   1.354       .  A
C407        C901   1.505       .  S
C407        N408   1.356   1_565  A
C407        N412   1.372       .  A
N408        C409   1.354       .  A
C409        C761   1.495       .  S
C409        N410   1.364       .  A
N410        C411   1.370       .  A
C411        N412   1.373   1_545  A
C413        C908   1.487       .  S
C413        N414   1.360   1_655  A
C413        N418   1.357       .  A
N414        C415   1.363       .  A
C415        C821   1.498       .  S
C415        N416   1.366       .  A
N416        C417   1.361       .  A
C417        N418   1.357   1_455  A
C419        C878   1.483       .  S
C419        N420   1.353       .  A
C419        N424   1.360       .  A
N420        C421   1.354       .  A
C421        N422   1.366       .  A
N422        C423   1.371       .  A
C423        C811   1.507       .  S
C423        N424   1.365       .  A
C425        C871   1.501       .  S
C425        N426   1.371       .  A
C425        N430   1.357       .  A
N426        C427   1.371       .  A
C427        N428   1.366       .  A
N428        C429   1.363       .  A
C429        C751   1.485       .  S
C429        N430   1.355       .  A
C431        C861   1.493       .  S
C431        N432   1.355       .  A
C431        N436   1.362       .  A
N432        C433   1.351       .  A
C433        C621   1.471       .  S
C433        N434   1.348       .  A
N434        C435   1.356       .  A
C435        N436   1.365       .  A
C437        C438   1.404       .  A
C437        C442   1.399       .  A
C437        F444   1.358       .  S
C438        C439   1.404       .  A
C439        C440   1.395       .  A
C439        F446   1.358       .  S
C440        C441   1.405       .  A
C440        F445   1.358       .  S
C441        C442   1.406       .  A
C442        F443   1.358       .  S
C447        C448   1.412       .  A
C447        C452   1.409       .  A
C447        F454   1.358       .  S
C448        C449   1.405       .  A
C449        C450   1.408       .  A
C449        F456   1.357       .  S
C450        C451   1.413       .  A
C450        F455   1.357       .  S
C451        C452   1.409       .  A
C452        F453   1.358       .  S
C457        C458   1.406       .  A
C457        C462   1.400       .  A
C457        F464   1.358       .  S
C458        C459   1.410       .  A
C459        C460   1.400       .  A
C459        F466   1.357       .  S
C460        C461   1.409       .  A
C460        F465   1.357       .  S
C461        C462   1.414       .  A
C462        F463   1.358       .  S
C467        C468   1.409       .  A
C467        C472   1.407       .  A
C467        F474   1.357       .  S
C468        C469   1.407       .  A
C469        C470   1.390       .  A
C469        F476   1.358       .  S
C470        C471   1.406       .  A
C470        F475   1.359       .  S
C471        C472   1.410       .  A
C472        F473   1.357       .  S
C477        C478   1.408       .  A
C477        C482   1.402       .  A
C477        F484   1.358       .  S
C478        C479   1.411       .  A
C479        C480   1.401       .  A
C479        F486   1.358       .  S
C480        C481   1.412       .  A
C480        F485   1.358       .  S
C481        C482   1.415       .  A
C482        F483   1.357       .  S
C487        C488   1.415       .  A
C487        C492   1.410       .  A
C487        F494   1.358       .  S
C488        C489   1.410       .  A
C489        C490   1.411       .  A
C489        F496   1.358       .  S
C490        C491   1.412       .  A
C490        F495   1.358       .  S
C491        C492   1.406       .  A
C492        F493   1.357       .  S
C497        C498   1.402       .  A
C497        C502   1.396       .  A
C497        F504   1.358       .  S
C498        C499   1.400       .  A
C499        C500   1.396       .  A
C499        F506   1.358       .  S
C500        C501   1.409       .  A
C500        F505   1.358       .  S
C501        C502   1.406       .  A
C502        F503   1.358       .  S
C507        C508   1.419       .  A
C507        C512   1.404       .  A
C507        F514   1.358       .  S
C508        C509   1.410       .  A
C509        C510   1.404       .  A
C509        F516   1.358       .  S
C510        C511   1.410       .  A
C510        F515   1.358       .  S
C511        C512   1.402       .  A
C512        F513   1.358       .  S
C517        C518   1.403       .  A
C517        C522   1.400       .  A
C517        F524   1.358       .  S
C518        C519   1.400       .  A
C519        C520   1.392       .  A
C519        F526   1.358       .  S
C520        C521   1.410       .  A
C520        F525   1.358       .  S
C521        C522   1.412       .  A
C522        F523   1.358       .  S
C527        C528   1.415       .  A
C527        C532   1.402       .  A
C527        F534   1.358       .  S
C528        C529   1.406       .  A
C529        C530   1.404       .  A
C529        F536   1.357       .  S
C530        C531   1.415       .  A
C530        F535   1.358       .  S
C531        C532   1.408       .  A
C532        F533   1.358       .  S
C537        C538   1.403       .  A
C537        C542   1.401       .  A
C537        F544   1.358       .  S
C538        C539   1.408       .  A
C539        C540   1.397       .  A
C539        F546   1.358       .  S
C540        C541   1.407       .  A
C540        F545   1.357       .  S
C541        C542   1.414       .  A
C542        F543   1.357       .  S
C547        C548   1.406       .  A
C547        C552   1.404       .  A
C547        F554   1.358       .  S
C548        C549   1.407       .  A
C549        C550   1.401       .  A
C549        F556   1.358       .  S
C550        C551   1.411       .  A
C550        F555   1.357       .  S
C551        C552   1.414       .  A
C552        F553   1.357       .  S
C557        C558   1.406       .  A
C557        C562   1.390       .  A
C557        F564   1.358       .  S
C558        C559   1.407       .  A
C559        C560   1.391       .  A
C559        F566   1.359       .  S
C560        C561   1.407       .  A
C560        F565   1.358       .  S
C561        C562   1.406       .  A
C562        F563   1.358       .  S
C567        C568   1.402       .  A
C567        C572   1.400       .  A
C567        F574   1.358       .  S
C568        C569   1.409       .  A
C569        C570   1.403       .  A
C569        F576   1.358       .  S
C570        C571   1.412       .  A
C570        F575   1.357       .  S
C571        C572   1.418       .  A
C572        F573   1.357       .  S
C577        C578   1.407       .  A
C577        C582   1.390       .  A
C577        F584   1.358       .  S
C578        C579   1.411       .  A
C579        C580   1.391       .  A
C579        F586   1.358       .  S
C580        C581   1.402       .  A
C580        F585   1.359       .  S
C581        C582   1.406       .  A
C582        F583   1.358       .  S
C587        C588   1.417       .  A
C587        C592   1.401       .  A
C587        F594   1.358       .  S
C588        C589   1.410       .  A
C589        C590   1.396       .  A
C589        F596   1.357       .  S
C590        C591   1.407       .  A
C590        F595   1.358       .  S
C591        C592   1.404       .  A
C592        F593   1.358       .  S
C597        C598   1.404       .  A
C597        C602   1.399       .  A
C597        F604   1.359       .  S
C598        C599   1.410       .  A
C599        C600   1.416       .  A
C599        F606   1.357       .  S
C600        C601   1.415       .  A
C600        F605   1.357       .  S
C601        C602   1.414       .  A
C602        F603   1.358       .  S
C607        C608   1.415       .  A
C607        C612   1.397       .  A
C607        F614   1.358       .  S
C608        C609   1.416       .  A
C609        C610   1.418       .  A
C609        F616   1.357       .  S
C610        C611   1.411       .  A
C610        F615   1.357       .  S
C611        C612   1.406       .  A
C612        F613   1.359       .  S
C617        C618   1.402       .  A
C617        C622   1.399       .  A
C617        F624   1.358       .  S
C618        C619   1.399       .  A
C619        C620   1.390       .  A
C619        F626   1.358       .  S
C620        C621   1.406       .  A
C620        F625   1.358       .  S
C621        C622   1.409       .  A
C622        F623   1.358       .  S
C627        C628   1.410       .  A
C627        C632   1.400       .  A
C627        F634   1.358       .  S
C628        C629   1.418       .  A
C629        C630   1.405       .  A
C629        F636   1.358       .  S
C630        C631   1.404       .  A
C630        F635   1.358       .  S
C631        C632   1.410       .  A
C632        F633   1.358       .  S
C637        C638   1.411       .  A
C637        C642   1.398       .  A
C637        F644   1.358       .  S
C638        C639   1.407       .  A
C639        C640   1.393       .  A
C639        F646   1.358       .  S
C640        C641   1.401       .  A
C640        F645   1.358       .  S
C641        C642   1.400       .  A
C642        F643   1.358       .  S
C647        C648   1.405       .  A
C647        C652   1.400       .  A
C647        F654   1.358       .  S
C648        C649   1.404       .  A
C649        C650   1.403       .  A
C649        F656   1.358       .  S
C650        C651   1.414       .  A
C650        F655   1.357       .  S
C651        C652   1.411       .  A
C652        F653   1.358       .  S
C657        C658   1.411       .  A
C657        C662   1.404       .  A
C657        F664   1.358       .  S
C658        C659   1.404       .  A
C659        C660   1.407       .  A
C659        F666   1.358       .  S
C660        C661   1.419       .  A
C660        F665   1.358       .  S
C661        C662   1.410       .  A
C662        F663   1.358       .  S
C667        C668   1.409       .  A
C667        C672   1.401       .  A
C667        F674   1.358       .  S
C668        C669   1.407       .  A
C669        C670   1.393       .  A
C669        F676   1.358       .  S
C670        C671   1.405       .  A
C670        F675   1.358       .  S
C671        C672   1.406       .  A
C672        F673   1.358       .  S
C677        C678   1.412       .  A
C677        C682   1.412       .  A
C677        F684   1.357       .  S
C678        C679   1.417       .  A
C679        C680   1.401       .  A
C679        F686   1.358       .  S
C680        C681   1.400       .  A
C680        F685   1.358       .  S
C681        C682   1.410       .  A
C682        F683   1.358       .  S
C687        C688   1.407       .  A
C687        C692   1.402       .  A
C687        F694   1.358       .  S
C688        C689   1.410       .  A
C689        C690   1.400       .  A
C689        F696   1.358       .  S
C690        C691   1.411       .  A
C690        F695   1.358       .  S
C691        C692   1.416       .  A
C692        F693   1.358       .  S
C697        C698   1.407       .  A
C697        C702   1.409       .  A
C697        F704   1.357       .  S
C698        C699   1.416       .  A
C699        C700   1.409       .  A
C699        F706   1.357       .  S
C700        C701   1.406       .  A
C700        F705   1.358       .  S
C701        C702   1.413       .  A
C702        F703   1.358       .  S
C707        C708   1.414       .  A
C707        C712   1.402       .  A
C707        F714   1.358       .  S
C708        C709   1.406       .  A
C709        C710   1.400       .  A
C709        F716   1.358       .  S
C710        C711   1.416       .  A
C710        F715   1.357       .  S
C711        C712   1.411       .  A
C712        F713   1.358       .  S
C717        C718   1.405       .  A
C717        C722   1.391       .  A
C717        F724   1.358       .  S
C718        C719   1.407       .  A
C719        C720   1.399       .  A
C719        F726   1.358       .  S
C720        C721   1.406       .  A
C720        F725   1.358       .  S
C721        C722   1.404       .  A
C722        F723   1.359       .  S
C727        C728   1.406       .  A
C727        C732   1.389       .  A
C727        F734   1.359       .  S
C728        C729   1.409       .  A
C729        C730   1.402       .  A
C729        F736   1.358       .  S
C730        C731   1.407       .  A
C730        F735   1.357       .  S
C731        C732   1.407       .  A
C732        F733   1.358       .  S
C737        C738   1.409       .  A
C737        C742   1.394       .  A
C737        F744   1.358       .  S
C738        C739   1.408       .  A
C739        C740   1.392       .  A
C739        F746   1.358       .  S
C740        C741   1.400       .  A
C740        F745   1.358       .  S
C741        C742   1.399       .  A
C742        F743   1.357       .  S
C747        C748   1.418       .  A
C747        C752   1.403       .  A
C747        F754   1.358       .  S
C748        C749   1.412       .  A
C749        C750   1.404       .  A
C749        F756   1.357       .  S
C750        C751   1.407       .  A
C750        F755   1.358       .  S
C751        C752   1.403       .  A
C752        F753   1.358       .  S
C757        C758   1.420       .  A
C757        C762   1.408       .  A
C757        F764   1.358       .  S
C758        C759   1.410       .  A
C759        C760   1.402       .  A
C759        F766   1.357       .  S
C760        C761   1.410       .  A
C760        F765   1.357       .  S
C761        C762   1.405       .  A
C762        F763   1.358       .  S
C767        C768   1.404       .  A
C767        C772   1.399       .  A
C767        F774   1.358       .  S
C768        C769   1.408       .  A
C769        C770   1.403       .  A
C769        F776   1.358       .  S
C770        C771   1.409       .  A
C770        F775   1.358       .  S
C771        C772   1.412       .  A
C772        F773   1.358       .  S
C777        C778   1.399       .  A
C777        C782   1.395       .  A
C777        F784   1.358       .  S
C778        C779   1.402       .  A
C779        C780   1.395       .  A
C779        F786   1.358       .  S
C780        C781   1.406       .  A
C780        F785   1.358       .  S
C781        C782   1.409       .  A
C782        F783   1.358       .  S
C787        C788   1.408       .  A
C787        C792   1.398       .  A
C787        F794   1.358       .  S
C788        C789   1.406       .  A
C789        C790   1.402       .  A
C789        F796   1.357       .  S
C790        C791   1.410       .  A
C790        F795   1.358       .  S
C791        C792   1.407       .  A
C792        F793   1.358       .  S
C797        C798   1.405       .  A
C797        C802   1.390       .  A
C797        F804   1.358       .  S
C798        C799   1.406       .  A
C799        C800   1.390       .  A
C799        F806   1.358       .  S
C800        C801   1.409       .  A
C800        F805   1.358       .  S
C801        C802   1.409       .  A
C802        F803   1.358       .  S
C807        C808   1.414       .  A
C807        C812   1.404       .  A
C807        F814   1.358       .  S
C808        C809   1.408       .  A
C809        C810   1.406       .  A
C809        F816   1.358       .  S
C810        C811   1.417       .  A
C810        F815   1.357       .  S
C811        C812   1.411       .  A
C812        F813   1.357       .  S
C817        C818   1.414       .  A
C817        C822   1.400       .  A
C817        F824   1.358       .  S
C818        C819   1.409       .  A
C819        C820   1.404       .  A
C819        F826   1.358       .  S
C820        C821   1.414       .  A
C820        F825   1.358       .  S
C821        C822   1.409       .  A
C822        F823   1.358       .  S
C827        C828   1.406       .  A
C827        C832   1.398       .  A
C827        F834   1.358       .  S
C828        C829   1.411       .  A
C829        C830   1.415       .  A
C829        F836   1.357       .  S
C830        C831   1.414       .  A
C830        F835   1.357       .  S
C831        C832   1.412       .  A
C832        F833   1.358       .  S
C837        C838   1.407       .  A
C837        C842   1.392       .  A
C837        F844   1.358       .  S
C838        C839   1.406       .  A
C839        C840   1.391       .  A
C839        F846   1.358       .  S
C840        C841   1.410       .  A
C840        F845   1.358       .  S
C841        C842   1.409       .  A
C842        F843   1.358       .  S
C847        C848   1.413       .  A
C847        C852   1.419       .  A
C847        F854   1.357       .  S
C848        C849   1.405       .  A
C849        C850   1.398       .  A
C849        F856   1.359       .  S
C850        C851   1.414       .  A
C850        F855   1.357       .  S
C851        C852   1.415       .  A
C852        F853   1.357       .  S
C857        C858   1.399       .  A
C857        C862   1.387       .  A
C857        F864   1.359       .  S
C858        C859   1.404       .  A
C859        C860   1.408       .  A
C859        F866   1.358       .  S
C860        C861   1.415       .  A
C860        F865   1.357       .  S
C861        C862   1.415       .  A
C862        F863   1.358       .  S
C867        C868   1.420       .  A
C867        C872   1.408       .  A
C867        F874   1.358       .  S
C868        C869   1.411       .  A
C869        C870   1.407       .  A
C869        F876   1.358       .  S
C870        C871   1.413       .  A
C870        F875   1.358       .  S
C871        C872   1.405       .  A
C872        F873   1.358       .  S
C877        C878   1.407       .  A
C877        C882   1.407       .  A
C877        F884   1.358       .  S
C878        C879   1.406       .  A
C879        C880   1.396       .  A
C879        F886   1.358       .  S
C880        C881   1.409       .  A
C880        F885   1.358       .  S
C881        C882   1.412       .  A
C882        F883   1.357       .  S
C887        C888   1.400       .  A
C887        C892   1.392       .  A
C887        F894   1.358       .  S
C888        C889   1.398       .  A
C889        C890   1.396       .  A
C889        F896   1.358       .  S
C890        C891   1.413       .  A
C890        F895   1.358       .  S
C891        C892   1.407       .  A
C892        F893   1.358       .  S
C897        C898   1.408       .  A
C897        C902   1.404       .  A
C897        F904   1.358       .  S
C898        C899   1.418       .  A
C899        C900   1.410       .  A
C899        F906   1.358       .  S
C900        C901   1.407       .  A
C900        F905   1.357       .  S
C901        C902   1.416       .  A
C902        F903   1.358       .  S
C907        C908   1.410       .  A
C907        C912   1.403       .  A
C907        F914   1.358       .  S
C908        C909   1.408       .  A
C909        C910   1.398       .  A
C909        F916   1.358       .  S
C910        C911   1.408       .  A
C910        F915   1.358       .  S
C911        C912   1.408       .  A
C912        F913   1.358       .  S
