geometry optimzed in LAMMPS
_audit_creation_date              2020-11-30 
_audit_creation_method            'lammps2cif' 
_symmetry_space_group_name_H-M    'P1' 
_symmetry_Int_Tables_number       1 
_symmetry_cell_setting            triclinic 
loop_ 
_symmetry_equiv_pos_as_xyz 
  x,y,z 
_cell_length_a                    30.58592483 
_cell_length_b                    32.61811018073293 
_cell_length_c                    31.798336959174947 
_cell_angle_alpha                 90.17885170556741 
_cell_angle_beta                  90.86659792764118 
_cell_angle_gamma                 90.59024345348946 
loop_ 
_atom_site_label 
_atom_site_type_symbol 
_atom_site_fract_x 
_atom_site_fract_y 
_atom_site_fract_z 
_atom_site_charge 
N1          N  0.49278821  0.93793019  0.52187354    -0.34300
N2          N  0.48846623  0.01166137  0.57368783    -0.54900
N3          N  0.48231748  0.05474030  0.49643032    -0.34300
N4          N  0.48182933  0.98141423  0.44270566    -0.54900
C5          C  0.48592484  0.92372146  0.56134675     0.29200
C6          C  0.47902846  0.90821571  0.49455890     0.29200
C7          C  0.46150172  0.07666156  0.52560075     0.29200
C8          C  0.46104088  0.06027592  0.45976427     0.29200
C9          C  0.50615256  0.98579912  0.60185566     0.37900
C10         C  0.49703575  0.05043387  0.58700644     0.37900
C11         C  0.49643285  0.94498266  0.42872275     0.37900
C12         C  0.49425349  0.01130508  0.41550092     0.37900
C13         C  0.46657832  0.88551797  0.55946014    -0.19600
C14         C  0.46117627  0.87610501  0.51776004    -0.19600
C15         C  0.42493812  0.09491482  0.50785049    -0.19600
C16         C  0.42445704  0.08413830  0.46587557    -0.19600
C17         C  0.52570726  0.00846003  0.63432555    -0.20700
C18         C  0.52029372  0.04965596  0.62455760    -0.20700
C19         C  0.51768759  0.95131284  0.39092598    -0.20700
C20         C  0.51693452  0.99354988  0.38289503    -0.20700
C21         C  0.50093934  0.94249011  0.59886988    -0.16000
C22         C  0.48916868  0.90726320  0.45060868    -0.16000
C23         C  0.48219269  0.05320562  0.42153164    -0.16000
C24         C  0.48087971  0.08488578  0.56508720    -0.16000
H25         H  0.45739171  0.86601950  0.58528420     0.16900
H26         H  0.44527456  0.84832109  0.50725535     0.16900
H27         H  0.40184372  0.11475977  0.52299355     0.16900
H28         H  0.40140684  0.09455680  0.44222823     0.16900
H29         H  0.54192389  0.99691903  0.66220701     0.15200
H30         H  0.53114694  0.07569503  0.64327113     0.15200
H31         H  0.53277057  0.92821021  0.37163438     0.15200
H32         H  0.53066313  0.00907241  0.35604832     0.15200
H33         H  0.51140832  0.96380592  0.51441049     0.28400
H34         H  0.51335903  0.04191404  0.49995756     0.28400
N35         N  0.92862590  0.51610490  0.49279514    -0.34300
N36         N  0.01189393  0.56289716  0.49558515    -0.54900
N37         N  0.05888091  0.48584949  0.49950424    -0.34300
N38         N  0.97543595  0.43876864  0.49685272    -0.54900
C39         C  0.91398682  0.55488633  0.49893851     0.29200
C40         C  0.89477677  0.48991517  0.50081695     0.29200
C41         C  0.09332417  0.51210517  0.49458536     0.29200
C42         C  0.07406155  0.44735932  0.49294671     0.29200
C43         C  0.98373463  0.59441932  0.48958190     0.37900
C44         C  0.05321010  0.57855391  0.49290375     0.37900
C45         C  0.93408546  0.42354510  0.49088584     0.37900
C46         C  0.00375418  0.40703338  0.49327603     0.37900
C47         C  0.87090764  0.55352015  0.51069606    -0.19600
C48         C  0.85889472  0.51317448  0.51225032    -0.19600
C49         C  0.13008680  0.48936998  0.48526855    -0.19600
C50         C  0.11773140  0.44925781  0.48334393    -0.19600
C51         C  0.00763337  0.63010679  0.48295817    -0.20700
C52         C  0.05105961  0.61994718  0.48446613    -0.20700
C53         C  0.93630401  0.38197803  0.48262257    -0.20700
C54         C  0.97994786  0.37143468  0.48485973    -0.20700
C55         C  0.93699545  0.59208234  0.49233154    -0.16000
C56         C  0.89435876  0.44613955  0.49500160    -0.16000
C57         C  0.05078842  0.40981733  0.49516539    -0.16000
C58         C  0.09289987  0.55599458  0.49593486    -0.16000
H59         H  0.84978757  0.57892099  0.51749445     0.16900
H60         H  0.82676081  0.50373780  0.52134576     0.16900
H61         H  0.16264289  0.49946590  0.47844807     0.16900
H62         H  0.13863429  0.42449742  0.47404533     0.16900
H63         H  0.99581786  0.66064801  0.47748127     0.15200
H64         H  0.07769484  0.64078077  0.47848292     0.15200
H65         H  0.90937468  0.36131389  0.47532980     0.15200
H66         H  0.99248357  0.34111391  0.47927758     0.15200
H67         H  0.95824912  0.50849741  0.47938676     0.28400
H68         H  0.02790473  0.49324813  0.50976499     0.28400
N69         N  0.50110029  0.50293560  0.93829776    -0.34300
N70         N  0.43685796  0.50812081  0.00636567    -0.54900
N71         N  0.50608268  0.49664345  0.07033071    -0.34300
N72         N  0.57085205  0.49642341  0.00240857    -0.54900
C73         C  0.46519245  0.51337483  0.91529002     0.29200
C74         C  0.53627062  0.50680733  0.91302218     0.29200
C75         C  0.47184138  0.50189016  0.09635588     0.29200
C76         C  0.54303290  0.49666611  0.09440899     0.29200
C77         C  0.40924565  0.50793308  0.97229224     0.37900
C78         C  0.41192965  0.50390269  0.04134431     0.37900
C79         C  0.59568732  0.49486191  0.96715246     0.37900
C80         C  0.59817735  0.49211336  0.03639511     0.37900
C81         C  0.47767147  0.52316866  0.87484147    -0.19600
C82         C  0.52235836  0.51873592  0.87330606    -0.19600
C83         C  0.48713396  0.50426117  0.13751247    -0.19600
C84         C  0.53201596  0.50092075  0.13629518    -0.19600
C85         C  0.36663949  0.50406038  0.98613088    -0.20700
C86         C  0.36836872  0.50119067  0.02913394    -0.20700
C87         C  0.63908380  0.49020333  0.97930238    -0.20700
C88         C  0.64061263  0.48850173  0.02241815    -0.20700
C89         C  0.42121603  0.51282318  0.92893602    -0.16000
C90         C  0.58063963  0.49971581  0.92421178    -0.16000
C91         C  0.58648993  0.49264805  0.08011239    -0.16000
C92         C  0.42704991  0.50373977  0.08443840    -0.16000
H93         H  0.45682899  0.53266513  0.84902048     0.16900
H94         H  0.54231393  0.52403910  0.84602356     0.16900
H95         H  0.46795097  0.50800995  0.16554883     0.16900
H96         H  0.55404066  0.50173869  0.16323421     0.16900
H97         H  0.33674963  0.50336410  0.96779179     0.15200
H98         H  0.34019451  0.49737065  0.04879072     0.15200
H99         H  0.66751552  0.48912489  0.95979056     0.15200
H100        H  0.67023227  0.48569038  0.04102655     0.15200
H101        H  0.50109743  0.49052696  0.96807044     0.28400
H102        H  0.50417083  0.49096857  0.03859447     0.28400
N103        N  0.98205552  0.58283712  0.99400919    -0.34300
N104        N  0.02351994  0.51429929  0.07792596    -0.54900
N105        N  0.02051603  0.44326607  0.00444536    -0.34300
N106        N  0.02055108  0.49445438  0.92776663    -0.54900
C107        C  0.96932516  0.56490271  0.03002198     0.29200
C108        C  0.97075516  0.55701866  0.96232784     0.29200
C109        C  0.04536861  0.44123699  0.03966405     0.29200
C110        C  0.04373372  0.42695342  0.97295297     0.29200
C111        C  0.00098090  0.54495500  0.09616356     0.37900
C112        C  0.01323482  0.47845377  0.09672143     0.37900
C113        C  0.00218916  0.52317384  0.90284851     0.37900
C114        C  0.01328201  0.45696167  0.91073145     0.37900
C115        C  0.94734387  0.52846161  0.02098950    -0.19600
C116        C  0.94800154  0.52360815  0.97807926    -0.19600
C117        C  0.08561811  0.42461267  0.02991330    -0.19600
C118        C  0.08430082  0.41491880  0.98758773    -0.19600
C119        C  0.97730715  0.52808612  0.12901707    -0.20700
C120        C  0.98539604  0.48598302  0.12962717    -0.20700
C121        C  0.98393633  0.50354455  0.86781715    -0.20700
C122        C  0.99114337  0.46144076  0.87274896    -0.20700
C123        C  0.98450315  0.57688712  0.07053316    -0.16000
C124        C  0.98680149  0.56009112  0.92084796    -0.16000
C125        C  0.02648622  0.42078125  0.93215307    -0.16000
C126        C  0.02630489  0.44022073  0.07988659    -0.16000
H127        H  0.93455742  0.50654487  0.04326589     0.16900
H128        H  0.93564331  0.49730267  0.96060759     0.16900
H129        H  0.11193376  0.41754615  0.05169186     0.16900
H130        H  0.10963759  0.40001785  0.96994225     0.16900
H131        H  0.95206622  0.54327307  0.14655197     0.15200
H132        H  0.96943816  0.46336914  0.14911639     0.15200
H133        H  0.96329788  0.51726128  0.84392177     0.15200
H134        H  0.97939389  0.43719639  0.85211530     0.15200
H135        H  0.00396252  0.60718846  0.99188434     0.28400
H136        H  0.98734559  0.45042333  0.00299700     0.28400
N137        N  0.55755861  0.98058679  0.98756949    -0.34300
N138        N  0.51620319  0.06104265  0.98719184    -0.54900
N139        N  0.43080369  0.01988488  0.99249269    -0.34300
N140        N  0.47241493  0.93962533  0.99321376    -0.54900
C141        C  0.59159433  0.00473323  0.97548384     0.29200
C142        C  0.56926919  0.94103253  0.98089761     0.29200
C143        C  0.41843057  0.05933167  0.99865537     0.29200
C144        C  0.39523217  0.99566030  0.99936563     0.29200
C145        C  0.55873911  0.07333541  0.98958235     0.37900
C146        C  0.49130533  0.09456583  0.99402902     0.37900
C147        C  0.49766456  0.90574474  0.99064051     0.37900
C148        C  0.43003695  0.92682648  0.99093732     0.37900
C149        C  0.62446391  0.97955125  0.96062449    -0.19600
C150        C  0.61057351  0.93991270  0.96446873    -0.19600
C151        C  0.37491450  0.06015684  0.00899412    -0.19600
C152        C  0.36016681  0.02055928  0.00900362    -0.19600
C153        C  0.56082507  0.11475090  0.99889327    -0.20700
C154        C  0.51838313  0.12837238  0.00070341    -0.20700
C155        C  0.47100654  0.87138379  0.98619996    -0.20700
C156        C  0.42858888  0.88486071  0.98525801    -0.27900
C157        C  0.59550761  0.04826730  0.98113957    -0.16000
C158        C  0.54430464  0.90537484  0.98892973    -0.16000
C159        C  0.39268075  0.95190547  0.99647268    -0.16000
C160        C  0.44460753  0.09516977  0.99600602    -0.16000
H161        H  0.65560501  0.98737240  0.94767849     0.16900
H162        H  0.62897140  0.91341285  0.95526985     0.16900
H163        H  0.35565237  0.08640882  0.01698531     0.16900
H164        H  0.32699307  0.01215626  0.01590671     0.16900
H165        H  0.58977374  0.13325801  0.00462440     0.15200
H166        H  0.50885647  0.15942015  0.00776659     0.15200
H167        H  0.48062455  0.83995935  0.98184107     0.15200
H168        H  0.40018041  0.86577197  0.97980560     0.15200
H169        H  0.53032655  0.99008275  0.00397867     0.28400
H170        H  0.46063693  0.01033543  0.98125792     0.28400
O171        O  0.78944064  0.70311077  0.82848588    -0.76200
C172        C  0.69535984  0.80834021  0.83408001     0.84800
O173        O  0.66812666  0.67153748  0.73868821    -0.77300
O174        O  0.69364947  0.81551831  0.69847373    -0.78800
O175        O  0.83771544  0.79672406  0.71378504    -0.78600
O176        O  0.84216683  0.71092957  0.78157619    -0.77300
Zn177      Zn  0.73713214  0.73001395  0.80306011     1.55700
O178        O  0.78644095  0.84181058  0.72951357    -0.78700
Cd179      Cd  0.80972577  0.74123861  0.73350380     1.59700
Cd180      Cd  0.70855594  0.71405220  0.70364164     1.59600
O181        O  0.81717770  0.70287990  0.68410277    -0.78600
O182        O  0.74647580  0.74651278  0.74606643    -1.89100
Cd183      Cd  0.73398893  0.80593412  0.74677921     1.59900
O184        O  0.75106798  0.68246425  0.66140937    -0.78600
O185        O  0.70041837  0.82669784  0.79920083    -0.77300
C186        C  0.66728065  0.66673772  0.77886881     0.85300
C187        C  0.82810607  0.69660622  0.81616696     0.84900
O188        O  0.71173822  0.77315713  0.84045561    -0.76200
C189        C  0.82334205  0.83335643  0.71374821     0.85800
O190        O  0.69209578  0.68767684  0.80298736    -0.76300
C191        C  0.79300710  0.68235008  0.65887074     0.85900
C192        C  0.67207350  0.79685326  0.66995457     0.86200
O193        O  0.67158260  0.75750949  0.66725279    -0.78700
O194        O  0.14862634  0.71050000  0.77215238    -0.76200
C195        C  0.16024123  0.82732381  0.69387764     0.84800
O196        O  0.25516617  0.68652953  0.66814952    -0.77300
O197        O  0.30137373  0.82807737  0.69866121    -0.78800
O198        O  0.26280856  0.79588464  0.83831154    -0.78600
O199        O  0.19579726  0.70988106  0.82585251    -0.77300
Zn200      Zn  0.18171816  0.74156600  0.72628913     1.55700
O201        O  0.26842348  0.84575659  0.79131876    -0.78700
Cd202      Cd  0.24822317  0.74388953  0.80423086     1.59700
Cd203      Cd  0.28825782  0.72476360  0.71257565     1.59600
O204        O  0.30057566  0.70738689  0.81603528    -0.78600
O205        O  0.24162707  0.75577177  0.74366285    -1.89100
Cd206      Cd  0.24977297  0.81594308  0.73641900     1.59900
O207        O  0.32531508  0.68730590  0.75412224    -0.78600
O208        O  0.19603009  0.84204758  0.70857411    -0.77300
C209        C  0.21407119  0.68117785  0.66097733     0.85300
C210        C  0.15970153  0.69826187  0.80892140     0.84900
O211        O  0.14921763  0.78982208  0.69901560    -0.76200
C212        C  0.27284118  0.83265685  0.82875690     0.85800
O213        O  0.18525033  0.70072799  0.68085366    -0.76300
C214        C  0.32643573  0.68603797  0.79437462     0.85900
C215        C  0.33277633  0.80721000  0.68456797     0.86200
O216        O  0.33299574  0.76790175  0.68671065    -0.78700
O217        O  0.79645270  0.17242613  0.70597882    -0.76200
C218        C  0.71636833  0.17075200  0.81975367     0.84800
O219        O  0.66542553  0.24873340  0.68160926    -0.77300
O220        O  0.69878175  0.30046124  0.82174646    -0.78800
O221        O  0.84527133  0.29649535  0.78211921    -0.78600
O222        O  0.84877468  0.22018862  0.70764167    -0.77300
Zn223      Zn  0.74366633  0.19577549  0.73211980     1.55700
O224        O  0.80288163  0.28583817  0.83724295    -0.78700
Cd225      Cd  0.81327248  0.26907594  0.73153743     1.59700
Cd226      Cd  0.70798544  0.28809965  0.71643119     1.59600
O227        O  0.81171001  0.31153042  0.68447426    -0.78600
O228        O  0.75233023  0.25310929  0.74661764    -1.89100
Cd229      Cd  0.74699668  0.25988873  0.80866587     1.59900
O230        O  0.74145314  0.32781868  0.67481854    -0.78600
O231        O  0.72589430  0.20585951  0.83529883    -0.77300
C232        C  0.66728947  0.21021898  0.67367034     0.85300
C233        C  0.83505032  0.18436004  0.69770426     0.84900
O234        O  0.72342348  0.16211940  0.78140335    -0.76200
C235        C  0.83773036  0.30051949  0.82123319     0.85800
O236        O  0.69688596  0.18790840  0.68945077    -0.76300
C237        C  0.78201461  0.33187659  0.66581055     0.85900
C238        C  0.67311396  0.32341423  0.80097501     0.86200
O239        O  0.67220845  0.32278121  0.76063044    -0.78700
O240        O  0.20754286  0.29226793  0.65760808    -0.76200
C241        C  0.34065038  0.23515184  0.66451671     0.84800
O242        O  0.20042518  0.17021553  0.73799238    -0.77300
O243        O  0.33999504  0.21616751  0.79606474    -0.78800
O244        O  0.28302996  0.35244420  0.78371839    -0.78600
O245        O  0.20111177  0.34197015  0.70496646    -0.77300
Zn246      Zn  0.24650463  0.25016642  0.68420331     1.55700
O247        O  0.34404248  0.31549105  0.78354517    -0.78700
Cd248      Cd  0.23643989  0.31545200  0.75442737     1.59700
Cd249      Cd  0.22979243  0.21510237  0.77900974     1.59600
O250        O  0.19130081  0.30978689  0.79871769    -0.78600
O251        O  0.25823222  0.25935616  0.74330263    -1.89100
Cd252      Cd  0.32243284  0.26113136  0.75470992     1.59900
O253        O  0.18359222  0.24455777  0.81864574    -0.78600
O254        O  0.35434099  0.24459640  0.70134598    -0.77300
C255        C  0.19873716  0.16918826  0.69761843     0.85300
C256        C  0.19131603  0.32606745  0.66938295     0.84900
O257        O  0.30113403  0.23986110  0.65269109    -0.76200
C258        C  0.32292565  0.34723554  0.79437414     0.85800
O259        O  0.21458222  0.19820983  0.67613269    -0.76300
C260        C  0.17331062  0.28260923  0.82109358     0.85900
C261        C  0.32041253  0.18931857  0.81789501     0.86200
O262        O  0.27865110  0.18512626  0.81596118    -0.78700
O263        O  0.70109652  0.79299029  0.15357134    -0.76200
C264        C  0.82952408  0.73036695  0.16831936     0.84800
O265        O  0.67950352  0.67641642  0.24381391    -0.77300
O266        O  0.82429434  0.71999434  0.29606894    -0.78800
O267        O  0.76579927  0.85380372  0.28840446    -0.78600
O268        O  0.69301044  0.84450210  0.19907142    -0.77300
Zn269      Zn  0.73320584  0.74800588  0.18462451     1.55700
O270        O  0.82772814  0.81829819  0.28876636    -0.78700
Cd271      Cd  0.72167025  0.81867022  0.25257218     1.59700
Cd272      Cd  0.71474980  0.72052293  0.28122707     1.59600
O273        O  0.67140194  0.81575858  0.29285781    -0.78600
O274        O  0.74372751  0.76213814  0.24309204    -1.89100
Cd275      Cd  0.80804892  0.76531239  0.25487032     1.59900
O276        O  0.67239191  0.75306024  0.32124552    -0.78600
O277        O  0.84262211  0.74851248  0.20198277    -0.77300
C278        C  0.67546054  0.67310338  0.20369498     0.85300
C279        C  0.68557983  0.82785398  0.16327580     0.84900
O280        O  0.78913338  0.72928666  0.15779530    -0.76200
C281        C  0.80490854  0.84832152  0.30163375     0.85800
O282        O  0.69364686  0.69901700  0.17966133    -0.76300
C283        C  0.65829545  0.78992544  0.31963448     0.85900
C284        C  0.80499717  0.69377301  0.31888323     0.86200
O285        O  0.76320321  0.68995232  0.31797300    -0.78700
O286        O  0.27958861  0.84816111  0.21131891    -0.76200
C287        C  0.16925227  0.83182983  0.30277907     0.84800
O288        O  0.32148438  0.75174872  0.32048328    -0.77300
O289        O  0.17435742  0.70323928  0.30549371    -0.78800
O290        O  0.19734183  0.72391278  0.15848797    -0.78600
O291        O  0.27667256  0.80201856  0.15970197    -0.77300
Zn292      Zn  0.25766727  0.81464431  0.26126610     1.55700
O293        O  0.14756444  0.72338070  0.20907966    -0.78700
Cd294      Cd  0.25291592  0.74918419  0.18726849     1.59700
Cd295      Cd  0.28080647  0.71775651  0.28034772     1.59600
O296        O  0.30055950  0.70649581  0.17741144    -0.78600
O297        O  0.24336251  0.75776092  0.24813810    -1.89100
Cd298      Cd  0.18019387  0.74791608  0.26124983     1.59900
O299        O  0.31916365  0.68176404  0.24001617    -0.78600
O300        O  0.15135271  0.79812833  0.29086103    -0.77300
C301        C  0.32740280  0.79041193  0.32438971     0.85300
C302        C  0.28706283  0.83765529  0.17344515     0.84900
O303        O  0.20813710  0.84095423  0.29204577    -0.76200
C304        C  0.15951543  0.71410709  0.17193644     0.85800
O305        O  0.30611722  0.81617748  0.30268778    -0.76300
C306        C  0.32264687  0.68185858  0.19995042     0.85900
C307        C  0.20048453  0.67922558  0.32416913     0.86200
O308        O  0.24160768  0.67955922  0.31754993    -0.78700
O309        O  0.73017842  0.14982363  0.18804125    -0.76200
C310        C  0.83112993  0.15860074  0.29636026     0.84800
O311        O  0.66745365  0.21763647  0.30053580    -0.77300
O312        O  0.81303768  0.29043885  0.30956460    -0.78800
O313        O  0.81306699  0.28178151  0.16451106    -0.78600
O314        O  0.73660046  0.20104294  0.14275695    -0.77300
Zn315      Zn  0.74887138  0.17448193  0.24396991     1.55700
O316        O  0.85768291  0.27704956  0.22028939    -0.78700
Cd317      Cd  0.75649175  0.24965118  0.18118952     1.59700
Cd318      Cd  0.71031296  0.26243810  0.27335845     1.59600
O319        O  0.70848179  0.29141584  0.17098577    -0.78600
O320        O  0.75792722  0.23334799  0.24147492    -1.89100
Cd321      Cd  0.81828314  0.24653614  0.26438547     1.59900
O322        O  0.67443244  0.30070590  0.23152176    -0.78600
O323        O  0.84448084  0.19587926  0.29673317    -0.77300
C324        C  0.66944146  0.17830383  0.30032753     0.85300
C325        C  0.72492927  0.16431010  0.15117723     0.84900
O326        O  0.79895663  0.14701720  0.27310941    -0.76200
C327        C  0.84882421  0.29123537  0.18365511     0.85800
O328        O  0.69925133  0.15978282  0.28084514    -0.76300
C329        C  0.67907108  0.30861714  0.19234756     0.85900
C330        C  0.78214543  0.30866649  0.32780165     0.86200
O331        O  0.74167103  0.30104330  0.31925622    -0.78700
N332        N  0.01720720  0.00721914  0.57270987    -0.34300
N333        N  0.06717362  0.01055866  0.49450379    -0.54900
N334        N  0.98518058  0.00580817  0.44818825    -0.34300
N335        N  0.93528509  0.00579261  0.52607557    -0.54900
C336        C  0.05821180  0.01468621  0.58760345     0.29200
C337        C  0.98930581  0.01541540  0.60430111     0.29200
C338        C  0.01332904  0.01746205  0.41757825     0.29200
C339        C  0.94400809  0.01276617  0.43348582     0.29200
C340        C  0.09977548  0.00184781  0.52232746     0.37900
C341        C  0.08314855  0.00415160  0.45539783     0.37900
C342        C  0.91949489  0.00046571  0.56547146     0.37900
C343        C  0.90206957  0.99758013  0.49838585     0.37900
C344        C  0.05667604  0.02808744  0.62867706    -0.19600
C345        C  0.01350927  0.02844562  0.63935320    -0.19600
C346        C  0.98926069  0.03260751  0.38387501    -0.19600
C347        C  0.94620654  0.02895970  0.39358315    -0.19600
C348        C  0.13695321  0.99113986  0.50063247    -0.20700
C349        C  0.12638756  0.99262918  0.45845135    -0.20700
C350        C  0.87591447  0.98926771  0.56293658    -0.20700
C351        C  0.86478169  0.98763379  0.52078946    -0.20700
C352        C  0.09718172  0.00533073  0.56692646    -0.16000
C353        C  0.94330416  0.00771273  0.60363047    -0.16000
C354        C  0.90427872  0.00273263  0.45364051    -0.16000
C355        C  0.05928327  0.00980230  0.41720330    -0.16000
H356        H  0.08384718  0.03575812  0.64940521     0.16900
H357        H  0.00247386  0.03629194  0.67028109     0.16900
H358        H  0.00008470  0.04515428  0.35462401     0.16900
H359        H  0.91997794  0.03653728  0.37236496     0.16900
H360        H  0.16870159  0.98345187  0.51349561     0.15200
H361        H  0.14835076  0.98625606  0.43323624     0.15200
H362        H  0.85415113  0.98332383  0.58869070     0.15200
H363        H  0.83248374  0.98037659  0.50879492     0.15200
H364        H  0.00958854  0.99184761  0.54477675     0.28400
H365        H  0.99303250  0.98888330  0.47490992     0.28400
N366        N  0.07998742  0.00176533  0.37673251    -0.01200
C367        C  0.07766626  0.02948631  0.34447159     0.01400
C368        C  0.06092635  0.01140812  0.30825541    -0.21500
C369        C  0.05476540  0.97110798  0.31698325    -0.21700
C370        C  0.07014993  0.96506647  0.35758040     0.01300
H371        H  0.05835390  0.02503007  0.27733330     0.15100
H372        H  0.04855188  0.94762882  0.29342368     0.15100
O373        O  0.29454555  0.22236258  0.15980632    -0.76200
C374        C  0.17662737  0.29709487  0.17915039     0.84800
O375        O  0.33101016  0.33027028  0.25830666    -0.77300
O376        O  0.18409148  0.29186249  0.31268382    -0.78800
O377        O  0.22177172  0.15574240  0.27814993    -0.78600
O378        O  0.30330524  0.16898920  0.20227489    -0.77300
Zn379      Zn  0.26817620  0.26657732  0.19465930     1.55700
O380        O  0.16599327  0.19906913  0.27883592    -0.78700
Cd381      Cd  0.27324474  0.19150821  0.25611369     1.59700
Cd382      Cd  0.29335863  0.28645483  0.29363221     1.59600
O383        O  0.32063478  0.18621657  0.29998423    -0.78600
O384        O  0.25827559  0.25068215  0.25217853    -1.89100
Cd385      Cd  0.19462365  0.25464523  0.26272312     1.59900
O386        O  0.33770595  0.24770375  0.32674243    -0.78600
O387        O  0.16307955  0.28385747  0.21426238    -0.77300
C388        C  0.33464513  0.33340351  0.21819725     0.85300
C389        C  0.30920065  0.18670982  0.16713452     0.84900
O390        O  0.21531646  0.29081386  0.16678966    -0.76200
C391        C  0.18195693  0.16376604  0.28599368     0.85800
O392        O  0.31240361  0.31044008  0.19361623    -0.76300
C393        C  0.34368605  0.20886843  0.32417937     0.85900
C394        C  0.20675138  0.31322769  0.33851321     0.86200
O395        O  0.24876854  0.31493026  0.33668776    -0.78700
N396        N  0.01211578  0.40021263  0.09615067    -0.01200
C397        C  0.03823321  0.36836910  0.08538587     0.01400
C398        C  0.01667936  0.34107790  0.05909423    -0.21500
C399        C  0.97439479  0.35384939  0.05719143    -0.21700
C400        C  0.97101749  0.38557933  0.08617117     0.01300
H401        H  0.02843690  0.31199003  0.04770260     0.15100
H402        H  0.94771537  0.33433661  0.04612012     0.15100
N403        N  0.42238693  0.13446767  0.99540217    -0.01200
C404        C  0.42222532  0.15824829  0.96035512     0.01400
C405        C  0.42514338  0.19910032  0.97160789    -0.21500
C406        C  0.42495200  0.20064627  0.01466991    -0.21700
C407        C  0.42124984  0.16070907  0.02894354     0.01300
H408        H  0.42077232  0.22508556  0.95091808     0.15100
H409        H  0.41959719  0.22812726  0.03300659     0.15100
N410        N  0.50227746  0.08889907  0.40017120    -0.01200
C411        C  0.54650439  0.09519001  0.40530026     0.01400
C412        C  0.55344492  0.12589480  0.43513628    -0.21500
C413        C  0.51603666  0.14822170  0.43536522    -0.21700
C414        C  0.48609535  0.12660221  0.41092668     0.01300
H415        H  0.58491085  0.13902831  0.44418402     0.15100
H416        H  0.51409693  0.17951078  0.44627973     0.15100
N417        N  0.86406858  0.00397684  0.42834548    -0.01200
C418        C  0.83426793  0.97254449  0.42718787     0.01400
C419        C  0.79287152  0.98840964  0.43284130    -0.21500
C420        C  0.79712829  0.03026444  0.43354056    -0.21700
C421        C  0.84071311  0.03931127  0.42676970     0.01300
H422        H  0.76204224  0.97221485  0.42869632     0.15100
H423        H  0.77015727  0.05112848  0.42900081     0.15100
N424        N  0.63932016  0.06664256  0.98195793    -0.01200
C425        C  0.66683526  0.06269712  0.94871288     0.01400
C426        C  0.70708970  0.04835548  0.96221709    -0.21500
C427        C  0.70536396  0.04506417  0.00482835    -0.21700
C428        C  0.66511443  0.05977229  0.01657450     0.01300
H429        H  0.73648363  0.04588098  0.94389238     0.15100
H430        H  0.73368482  0.04123783  0.02524102     0.15100
N431        N  0.62129042  0.48988876  0.11182142    -0.01200
C432        C  0.64668351  0.45600257  0.11621924     0.01400
C433        C  0.68924349  0.46712833  0.12644017    -0.21500
C434        C  0.69013765  0.50876094  0.13033283    -0.21700
C435        C  0.64816792  0.52212289  0.12225500     0.01300
H436        H  0.71528637  0.44676071  0.13597705     0.15100
H437        H  0.71707026  0.52684051  0.14320735     0.15100
N438        N  0.85183067  0.42482869  0.49026621    -0.01200
C439        C  0.82001269  0.42845235  0.52000140     0.01400
C440        C  0.78096768  0.44059852  0.50166244    -0.21500
C441        C  0.78778232  0.44311519  0.45963233    -0.21700
C442        C  0.82944264  0.42860473  0.45281967     0.01300
H443        H  0.74936523  0.44243404  0.51634789     0.15100
H444        H  0.76165421  0.44505357  0.43634672     0.15100
N445        N  0.39486457  0.50551087  0.11786164    -0.01200
C446        C  0.37119463  0.47177774  0.12929349     0.01400
C447        C  0.32809702  0.48180325  0.13593700    -0.21500
C448        C  0.32500474  0.52304579  0.13056528    -0.21700
C449        C  0.36636170  0.53728978  0.12098454     0.01300
H450        H  0.30314239  0.46215841  0.14920870     0.15100
H451        H  0.29729501  0.54145786  0.13930408     0.15100
N452        N  0.99016496  0.62043407  0.08047117    -0.01200
C453        C  0.95622803  0.64516624  0.06890987     0.01400
C454        C  0.96966943  0.67451976  0.04074871    -0.21500
C455        C  0.01396667  0.67216929  0.03938914    -0.21700
C456        C  0.02649281  0.64068641  0.06621474     0.01300
H457        H  0.95084225  0.70046105  0.02987377     0.15100
H458        H  0.03443620  0.69629950  0.02687172     0.15100
N459        N  0.34952771  0.93268244  0.99964570    -0.01200
C460        C  0.31981225  0.93655064  0.96745250     0.01400
C461        C  0.27888722  0.94521320  0.98275737    -0.21500
C462        C  0.28221471  0.94395043  0.02549500    -0.21700
C463        C  0.32540075  0.93563826  0.03538015     0.01300
H464        H  0.24842663  0.94505154  0.96494274     0.15100
H465        H  0.25497075  0.94386326  0.04683661     0.15100
N466        N  0.49714188  0.86750407  0.43064673    -0.01200
C467        C  0.46719807  0.83645489  0.43471513     0.01400
C468        C  0.48600320  0.80246988  0.45323621    -0.21500
C469        C  0.52901819  0.81161114  0.45881180    -0.21700
C470        C  0.53611616  0.84876636  0.43889411     0.01300
H471        H  0.47179274  0.77230108  0.45738479     0.15100
H472        H  0.55341217  0.78861402  0.46564430     0.15100
N473        N  0.13512409  0.57779192  0.49480553    -0.01200
C474        C  0.16592878  0.57303057  0.52632803     0.01400
C475        C  0.20646576  0.56490467  0.50937443    -0.21500
C476        C  0.20200475  0.56761695  0.46702210    -0.21700
C477        C  0.15882140  0.57678118  0.45872701     0.01300
H478        H  0.23771469  0.56441597  0.52577988     0.15100
H479        H  0.22875963  0.56928843  0.44514518     0.15100
N480        N  0.56730992  0.86659236  0.99267439    -0.01200
C481        C  0.56806181  0.83863650  0.96078949     0.01400
C482        C  0.55827268  0.80014931  0.97672749    -0.21500
C483        C  0.55722056  0.80387811  0.01963559    -0.21700
C484        C  0.56522062  0.84472291  0.02892268     0.01300
H485        H  0.56174927  0.77130240  0.96021352     0.15100
H486        H  0.55904951  0.77849508  0.04142820     0.15100
N487        N  0.07703985  0.37264774  0.49845567    -0.01200
C488        C  0.08289127  0.34661707  0.46535360     0.01400
C489        C  0.07580321  0.30675153  0.47858843    -0.21500
C490        C  0.07116226  0.30797869  0.52131268    -0.21700
C491        C  0.07480627  0.34865143  0.53335381     0.01300
H492        H  0.08302401  0.27927755  0.46090020     0.15100
H493        H  0.07388997  0.28160362  0.54173633     0.15100
N494        N  0.01415758  0.37897481  0.91945616    -0.01200
C495        C  0.97364075  0.36487690  0.93061474     0.01400
C496        C  0.97776014  0.33154666  0.95714067    -0.21500
C497        C  0.02021788  0.31993702  0.95623408    -0.21700
C498        C  0.04160403  0.34773438  0.93087792     0.01300
H499        H  0.95155568  0.31153946  0.96739935     0.15100
H500        H  0.03132534  0.29032358  0.96674859     0.15100
N501        N  0.13569715  0.99741473  0.59254884    -0.01200
C502        C  0.16946917  0.02455102  0.59702069     0.01400
C503        C  0.20854079  0.00352461  0.59803815    -0.21500
C504        C  0.19831157  0.96251590  0.59696560    -0.21700
C505        C  0.15326335  0.95946786  0.59470602     0.01300
H506        H  0.24035465  0.01624143  0.60635786     0.15100
H507        H  0.22080466  0.93790045  0.60371539     0.15100
N508        N  0.49383476  0.12696149  0.57530263    -0.01200
C509        C  0.53479003  0.14000468  0.56500361     0.01400
C510        C  0.53179617  0.17138540  0.53584917    -0.21500
C511        C  0.48937485  0.18395975  0.53553200    -0.21700
C512        C  0.46731674  0.15764710  0.56187673     0.01300
H513        H  0.55872845  0.19039914  0.52533622     0.15100
H514        H  0.47833125  0.21314669  0.52360387     0.15100
N515        N  0.38667566  0.51797457  0.89719801    -0.01200
C516        C  0.35659069  0.48771370  0.88941271     0.01400
C517        C  0.31511725  0.50352612  0.88530535    -0.21500
C518        C  0.31937374  0.54490789  0.88951230    -0.21700
C519        C  0.36362517  0.55357343  0.89404105     0.01300
H520        H  0.28562312  0.48710341  0.87584741     0.15100
H521        H  0.29395369  0.56664025  0.88182270     0.15100
N522        N  0.92087235  0.00638711  0.64377379    -0.01200
C523        C  0.92030230  0.03944291  0.67013584     0.01400
C524        C  0.92578441  0.02778079  0.71151866    -0.21500
C525        C  0.92976294  0.98628678  0.71130177    -0.21700
C526        C  0.92453630  0.97337270  0.66999864     0.01300
H527        H  0.92393821  0.04712736  0.73914415     0.15100
H528        H  0.92876416  0.96710258  0.73902173     0.15100
N529        N  0.99576579  0.60069977  0.90345786    -0.01200
C530        C  0.03518356  0.61979330  0.91164371     0.01400
C531        C  0.02862483  0.65703360  0.93176143    -0.21500
C532        C  0.98501384  0.66416998  0.93064451    -0.21700
C533        C  0.96575196  0.63026913  0.91183564     0.01300
H534        H  0.05310746  0.68052492  0.93831371     0.15100
H535        H  0.96991749  0.69323711  0.93756338     0.15100
N536        N  0.51000711  0.91664509  0.63477744    -0.01200
C537        C  0.48251413  0.91406548  0.66776864     0.01400
C538        C  0.50667321  0.91683059  0.70484327    -0.21500
C539        C  0.54994547  0.91647899  0.69406902    -0.21700
C540        C  0.55110323  0.91384307  0.65067421     0.01300
H541        H  0.49466986  0.91073319  0.73608451     0.15100
H542        H  0.57676630  0.91025561  0.71565030     0.15100
N543        N  0.61250188  0.49971984  0.89034247    -0.01200
C544        C  0.63830657  0.53325460  0.88262699     0.01400
C545        C  0.68132254  0.52132477  0.87796996    -0.21500
C546        C  0.68138876  0.47952732  0.87746577    -0.21700
C547        C  0.63888208  0.46697419  0.88409317     0.01300
H548        H  0.70800464  0.54049606  0.86721884     0.15100
H549        H  0.70831095  0.46047438  0.86798111     0.15100
N550        N  0.91145960  0.62964893  0.49044721    -0.01200
C551        C  0.91271826  0.65443092  0.45616411     0.01400
C552        C  0.91700746  0.69488529  0.46876492    -0.21500
C553        C  0.91512894  0.69524310  0.51172561    -0.21700
C554        C  0.90852510  0.65512018  0.52436839     0.01300
H555        H  0.91393775  0.72161050  0.44886952     0.15100
H556        H  0.90961261  0.72237554  0.53054612     0.15100
C557        C  0.14028794  0.35150727  0.36111561     0.25900
C558        C  0.18148389  0.33468569  0.37166447    -0.22300
C559        C  0.19263141  0.33036945  0.41437440     0.20800
C560        C  0.16177416  0.33887571  0.44549962     0.25800
C561        C  0.11906080  0.35201523  0.43459826    -0.22200
C562        C  0.10955611  0.36023101  0.39227113     0.20700
F563        F  0.06918402  0.37337938  0.38073313    -0.12200
F564        F  0.12845945  0.35649284  0.32013159    -0.14500
F565        F  0.17207842  0.32983395  0.48605251    -0.14500
F566        F  0.23129857  0.31326923  0.42581632    -0.12200
C567        C  0.38945998  0.43580952  0.19557601     0.25900
C568        C  0.38837418  0.43511344  0.15114921    -0.22300
C569        C  0.38300042  0.39726714  0.13091050     0.20800
C570        C  0.37073837  0.36250222  0.15385808     0.25800
C571        C  0.36274587  0.36525824  0.19763892    -0.22200
C572        C  0.37585217  0.40138872  0.21868208     0.20700
F573        F  0.37095509  0.40504992  0.26086822    -0.12200
F574        F  0.39689270  0.47165329  0.21628847    -0.14500
F575        F  0.36265742  0.32713128  0.13232866    -0.14500
F576        F  0.38366840  0.39520703  0.08826537    -0.12200
C577        C  0.39417552  0.20226093  0.38736626     0.25900
C578        C  0.37888069  0.18788205  0.34819643    -0.22300
C579        C  0.39616292  0.15107413  0.33212332     0.20800
C580        C  0.42852364  0.12984137  0.35403957     0.25800
C581        C  0.44595526  0.14539286  0.39198942    -0.22200
C582        C  0.42699912  0.18104071  0.40928981     0.20700
F583        F  0.43924695  0.19508573  0.44787725    -0.12200
F584        F  0.37683110  0.23633358  0.40486956    -0.14500
F585        F  0.44408692  0.09488155  0.33677007    -0.14500
F586        F  0.38285181  0.13598270  0.29411421    -0.12200
C587        C  0.38111793  0.16180246  0.14115551     0.25900
C588        C  0.33596158  0.16759124  0.13430243    -0.22300
C589        C  0.31896804  0.16473220  0.09332828     0.20800
C590        C  0.34667903  0.15874348  0.05943885     0.25800
C591        C  0.39218723  0.15432218  0.06558986    -0.22200
C592        C  0.40908553  0.15549122  0.10696549     0.20700
F593        F  0.45296546  0.15463733  0.11387748    -0.12200
F594        F  0.39872055  0.16677755  0.18032845    -0.14500
F595        F  0.32951708  0.16269065  0.02022325    -0.14500
F596        F  0.27582810  0.17156275  0.08574724    -0.12200
C597        C  0.14488040  0.31609201  0.10918075     0.25900
C598        C  0.14683213  0.32143968  0.15295459    -0.22300
C599        C  0.11955625  0.35029586  0.17196879     0.20800
C600        C  0.08773834  0.37033152  0.14821106     0.25800
C601        C  0.08085543  0.35961223  0.10582110    -0.22200
C602        C  0.11170442  0.33474577  0.08571332     0.20700
F603        F  0.10907071  0.32766722  0.04365099    -0.12200
F604        F  0.17311702  0.29074511  0.08962715    -0.14500
F605        F  0.06159753  0.39773001  0.16758645    -0.14500
F606        F  0.12305784  0.35842114  0.21380861    -0.12200
C607        C  0.08231459  0.10048844  0.31602106     0.25900
C608        C  0.10087468  0.06968326  0.34152053    -0.22300
C609        C  0.14556568  0.07279427  0.35208473     0.20800
C610        C  0.17195273  0.10314603  0.33382384     0.25800
C611        C  0.15389920  0.13187155  0.30561125    -0.22200
C612        C  0.10850081  0.13100186  0.29806927     0.20700
F613        F  0.08974381  0.15804573  0.27107315    -0.12200
F614        F  0.03902471  0.09925561  0.30590694    -0.14500
F615        F  0.21538418  0.10400657  0.34333590    -0.14500
F616        F  0.16450212  0.04494198  0.37782770    -0.12200
C617        C  0.80991161  0.37862092  0.34741260     0.25900
C618        C  0.79530076  0.33947917  0.35972906    -0.22300
C619        C  0.79986483  0.32796221  0.40192838     0.20800
C620        C  0.81640292  0.35581739  0.43186948     0.25800
C621        C  0.82909463  0.39589599  0.42019325    -0.22200
C622        C  0.82620344  0.40676662  0.37745338     0.20700
F623        F  0.83646869  0.44551977  0.36532343    -0.12200
F624        F  0.80733057  0.38988952  0.30638895    -0.14500
F625        F  0.81578208  0.34483298  0.47291645    -0.14500
F626        F  0.78743025  0.28985326  0.41432826    -0.12200
C627        C  0.64312416  0.38086814  0.10625642     0.25900
C628        C  0.63131161  0.41513572  0.13003535    -0.22300
C629        C  0.62331845  0.40990392  0.17322639     0.20800
C630        C  0.63429212  0.37315814  0.19349518     0.25800
C631        C  0.65271224  0.34081433  0.17063494    -0.22200
C632        C  0.65318540  0.34381544  0.12622002     0.20700
F633        F  0.66756540  0.31225664  0.10231041    -0.12200
F634        F  0.65062247  0.38489398  0.06447696    -0.14500
F635        F  0.63203592  0.37136903  0.23604645    -0.14500
F636        F  0.61193040  0.44257275  0.19704836    -0.12200
C637        C  0.67922085  0.12952185  0.04483798     0.25900
C638        C  0.66704906  0.08858793  0.05256105    -0.22300
C639        C  0.67020851  0.07358966  0.09376191     0.20800
C640        C  0.68797304  0.09826084  0.12616627     0.25800
C641        C  0.70332213  0.13848402  0.11774559    -0.22200
C642        C  0.69650663  0.15429751  0.07697884     0.20700
F643        F  0.70829831  0.19334795  0.06732557    -0.12200
F644        F  0.67893340  0.14438717  0.00507198    -0.14500
F645        F  0.69124891  0.08214725  0.16538131    -0.14500
F646        F  0.65861870  0.03416234  0.10201820    -0.12200
C647        C  0.86164975  0.11034025  0.40104028     0.25900
C648        C  0.84876013  0.06961559  0.39281033    -0.22300
C649        C  0.83933336  0.05781750  0.35100515     0.20800
C650        C  0.84075240  0.08620658  0.31846841     0.25800
C651        C  0.84843030  0.12801383  0.32697280    -0.22200
C652        C  0.86106808  0.13958337  0.36839289     0.20700
F653        F  0.86888294  0.17956481  0.37811535    -0.12200
F654        F  0.87205728  0.12224379  0.44092145    -0.14500
F655        F  0.83053361  0.07322433  0.27886422    -0.14500
F656        F  0.82568585  0.01905464  0.34189569    -0.12200
C657        C  0.59203212  0.15676197  0.31558177     0.25900
C658        C  0.63702102  0.15243097  0.32293909    -0.22300
C659        C  0.65115243  0.12097487  0.35010246     0.20800
C660        C  0.62089154  0.09795098  0.37339294     0.25800
C661        C  0.57558849  0.10428979  0.36855681    -0.22200
C662        C  0.56175434  0.13216370  0.33699510     0.20700
F663        F  0.51883495  0.13860508  0.32914400    -0.12200
F664        F  0.57721850  0.18524097  0.28791645    -0.14500
F665        F  0.63591289  0.07251890  0.40395982    -0.14500
F666        F  0.69453201  0.11448566  0.35638181    -0.12200
C667        C  0.95358809  0.34827806  0.15340466     0.25900
C668        C  0.93935455  0.37310603  0.11953585    -0.22300
C669        C  0.89426939  0.37383850  0.11025384     0.20800
C670        C  0.86490200  0.34817146  0.13172848     0.25800
C671        C  0.87981997  0.32082589  0.16316015    -0.22200
C672        C  0.92427004  0.32294137  0.17510114     0.20700
F673        F  0.94025658  0.29846030  0.20604444    -0.12200
F674        F  0.99663736  0.34471435  0.16281371    -0.14500
F675        F  0.82181101  0.34965092  0.12105724    -0.14500
F676        F  0.87913218  0.39704351  0.07789469    -0.12200
C677        C  0.17402686  0.61074882  0.34933429     0.25900
C678        C  0.18207186  0.65260904  0.35660768    -0.22300
C679        C  0.17082255  0.67007716  0.39520575     0.20800
C680        C  0.15574005  0.64542278  0.42772375     0.25800
C681        C  0.15093548  0.60285075  0.42187696    -0.22200
C682        C  0.15801288  0.58602183  0.38175826     0.20700
F683        F  0.15401148  0.54493186  0.37554719    -0.12200
F684        F  0.18343338  0.59362271  0.31162349    -0.14500
F685        F  0.15247432  0.66229538  0.46657505    -0.14500
F686        F  0.17792250  0.71066236  0.40253121    -0.12200
C687        C  0.38556442  0.84069601  0.34578372     0.25900
C688        C  0.35928727  0.80642671  0.35532547    -0.22300
C689        C  0.36243682  0.78874200  0.39527048     0.20800
C690        C  0.39383846  0.80296823  0.42411231     0.25800
C691        C  0.42422477  0.83371115  0.41256333    -0.22200
C692        C  0.41757100  0.85451501  0.37438851     0.20700
F693        F  0.44385471  0.88626557  0.36322882    -0.12200
F694        F  0.38232953  0.85904747  0.30759630    -0.14500
F695        F  0.39555605  0.78537099  0.46273461    -0.14500
F696        F  0.33537933  0.75738636  0.40622392    -0.12200
C697        C  0.34668118  0.87477618  0.07766138     0.25900
C698        C  0.33561393  0.91641244  0.07658717    -0.22300
C699        C  0.31816672  0.93408556  0.11313099     0.20800
C700        C  0.30458271  0.90919193  0.14661102     0.25800
C701        C  0.30927493  0.86634182  0.14415827    -0.22200
C702        C  0.33393456  0.85011084  0.11113897     0.20700
F703        F  0.34335438  0.80952516  0.10976722    -0.12200
F704        F  0.36457268  0.85630238  0.04415889    -0.14500
F705        F  0.28347789  0.92660368  0.17926118    -0.14500
F706        F  0.30937218  0.97480639  0.11400460    -0.12200
C707        C  0.13370911  0.68936962  0.10034777     0.25900
C708        C  0.12914200  0.68972314  0.14433139    -0.22300
C709        C  0.09636468  0.66465982  0.16198864     0.20800
C710        C  0.06617951  0.64334535  0.13626365     0.25800
C711        C  0.06712729  0.64760338  0.09226043    -0.22200
C712        C  0.10338495  0.66820148  0.07468072     0.20700
F713        F  0.10813096  0.66987142  0.03231318    -0.12200
F714        F  0.16622851  0.71112454  0.08185043    -0.14500
F715        F  0.03466521  0.62041360  0.15477743    -0.14500
F716        F  0.09312775  0.66095127  0.20435103    -0.12200
C717        C  0.38617889  0.58443104  0.17934330     0.25900
C718        C  0.37787675  0.57908106  0.13596010    -0.22300
C719        C  0.36199096  0.61239824  0.11286812     0.20800
C720        C  0.34894407  0.64819949  0.13342414     0.25800
C721        C  0.34988430  0.65071084  0.17792336    -0.22200
C722        C  0.37161551  0.61955470  0.20033998     0.20700
F723        F  0.37507138  0.62098362  0.24293927    -0.12200
F724        F  0.40205338  0.55292630  0.20249800    -0.14500
F725        F  0.33120920  0.67852289  0.10972756    -0.14500
F726        F  0.35356377  0.60819093  0.07102284    -0.12200
C727        C  0.16629904  0.89783715  0.34361695     0.25900
C728        C  0.14501080  0.86176402  0.32924900    -0.22300
C729        C  0.10035681  0.85646252  0.33869301     0.20800
C730        C  0.07651842  0.88907079  0.35563597     0.25800
C731        C  0.09667403  0.92751367  0.36290015    -0.22200
C732        C  0.14229340  0.93067505  0.35883315     0.20700
F733        F  0.16311668  0.96727682  0.36292895    -0.12200
F734        F  0.21019571  0.90296796  0.33992386    -0.14500
F735        F  0.03257846  0.88486814  0.35979239    -0.14500
F736        F  0.07900453  0.82087454  0.32917650    -0.12200
C737        C  0.81561539  0.65055850  0.38436447     0.25900
C738        C  0.83307686  0.66974166  0.34865669    -0.22300
C739        C  0.87916086  0.67086984  0.34469378     0.20800
C740        C  0.90648633  0.65995436  0.37847519     0.25800
C741        C  0.88863796  0.64586600  0.41614524    -0.22200
C742        C  0.84337190  0.63753276  0.41718868     0.20700
F743        F  0.82533277  0.62084222  0.45186885    -0.12200
F744        F  0.77171023  0.64780705  0.38948228    -0.14500
F745        F  0.95020720  0.66698804  0.37592707    -0.14500
F746        F  0.89802671  0.68570616  0.30938895    -0.12200
C747        C  0.64258933  0.60143087  0.20654041     0.25900
C748        C  0.65259105  0.63695254  0.18335596    -0.22300
C749        C  0.64703197  0.63511214  0.13898938     0.20800
C750        C  0.63883001  0.59758359  0.11842134     0.25800
C751        C  0.63456901  0.56138749  0.14152305    -0.22200
C752        C  0.63360258  0.56409825  0.18579955     0.20700
F753        F  0.62977940  0.52948033  0.20910994    -0.12200
F754        F  0.64573083  0.60165403  0.24916900    -0.14500
F755        F  0.63998951  0.59586675  0.07578542    -0.14500
F756        F  0.65306617  0.66898100  0.11497254    -0.12200
C757        C  0.66582964  0.86423710  0.09643163     0.25900
C758        C  0.65310368  0.84578739  0.13408017    -0.22300
C759        C  0.60876694  0.83575527  0.13971495     0.20800
C760        C  0.57845263  0.84002998  0.10657663     0.25800
C761        C  0.59180549  0.85500239  0.06732244    -0.22200
C762        C  0.63532900  0.86937476  0.06347702     0.20700
F763        F  0.64995077  0.88378912  0.02631786    -0.12200
F764        F  0.70845806  0.87421574  0.09034292    -0.14500
F765        F  0.53702856  0.82563320  0.11145738    -0.14500
F766        F  0.59576945  0.81758795  0.17588532    -0.12200
C767        C  0.64089649  0.81506599  0.39124587     0.25900
C768        C  0.62691994  0.80528739  0.35017652    -0.22300
C769        C  0.58536779  0.81748935  0.33629453     0.20800
C770        C  0.55666080  0.83603589  0.36411817     0.25800
C771        C  0.56979229  0.84453303  0.40606995    -0.22200
C772        C  0.61283294  0.83512551  0.41875310     0.20700
F773        F  0.62626079  0.84231388  0.45902054    -0.12200
F774        F  0.68177691  0.80520989  0.40466101    -0.14500
F775        F  0.51494611  0.84210547  0.35083262    -0.14500
F776        F  0.57204958  0.81010693  0.29600109    -0.12200
C777        C  0.86249439  0.93448724  0.36313718     0.25900
C778        C  0.83848880  0.93438898  0.40087120    -0.22300
C779        C  0.80962730  0.90116986  0.40770443     0.20800
C780        C  0.80109893  0.87204034  0.37601204     0.25800
C781        C  0.82135833  0.87498077  0.33669279    -0.22200
C782        C  0.85378773  0.90517444  0.33127539     0.20700
F783        F  0.87481478  0.90810837  0.29412037    -0.12200
F784        F  0.89164284  0.96486045  0.35521692    -0.14500
F785        F  0.77133249  0.84175169  0.38308182    -0.14500
F786        F  0.78707244  0.89860007  0.44408999    -0.12200
C787        C  0.87850944  0.66149363  0.08393832     0.25900
C788        C  0.92194582  0.65822853  0.09829085    -0.22300
C789        C  0.93458099  0.67859826  0.13559562     0.20800
C790        C  0.90505340  0.70274423  0.15742442     0.25800
C791        C  0.86157723  0.70701602  0.14282798    -0.22200
C792        C  0.84847292  0.68531868  0.10603570     0.20700
F793        F  0.80689881  0.68768179  0.09073466    -0.12200
F794        F  0.86576060  0.64303834  0.04736182    -0.14500
F795        F  0.91975162  0.72263012  0.19253643    -0.14500
F796        F  0.97670776  0.67815975  0.14924390    -0.12200
C797        C  0.33827035  0.41414308  0.88986776     0.25900
C798        C  0.36524458  0.44560335  0.87448165    -0.22300
C799        C  0.38587343  0.43983772  0.83555602     0.20800
C800        C  0.37466546  0.40593225  0.81002018     0.25800
C801        C  0.34322725  0.37744288  0.82345781    -0.22200
C802        C  0.32681822  0.38068529  0.86435326     0.20700
F803        F  0.29677384  0.35315929  0.87829100    -0.12200
F804        F  0.31827933  0.41875278  0.92742365    -0.14500
F805        F  0.39093936  0.40324965  0.77064320    -0.14500
F806        F  0.41240039  0.46940205  0.81984985    -0.12200
C807        C  0.36941537  0.21972291  0.59298134     0.25900
C808        C  0.37035157  0.21351021  0.63659351    -0.22300
C809        C  0.39693740  0.18266500  0.65364213     0.20800
C810        C  0.42490531  0.16078784  0.62809037     0.25800
C811        C  0.42824665  0.17062311  0.58521990    -0.22200
C812        C  0.39836555  0.19854607  0.56740503     0.20700
F813        F  0.39763683  0.20587585  0.52543109    -0.12200
F814        F  0.34167572  0.24726279  0.57540640    -0.14500
F815        F  0.45067690  0.13192428  0.64619041    -0.14500
F816        F  0.39561115  0.17336277  0.69523527    -0.12200
C817        C  0.17208977  0.13611082  0.62976767     0.25900
C818        C  0.18110396  0.13298077  0.67361041    -0.22300
C819        C  0.17942953  0.09394027  0.69210867     0.20800
C820        C  0.17252214  0.05894026  0.66713741     0.25800
C821        C  0.16643037  0.06207802  0.62322152    -0.22200
C822        C  0.16474848  0.10095664  0.60496636     0.20700
F823        F  0.15861620  0.10479037  0.56278322    -0.12200
F824        F  0.17259241  0.17309949  0.61026588    -0.14500
F825        F  0.17490434  0.02150447  0.68550911    -0.14500
F826        F  0.18807786  0.08914389  0.73378053    -0.12200
C827        C  0.11487447  0.33232182  0.83780993     0.25900
C828        C  0.13976742  0.29804391  0.85006958    -0.22300
C829        C  0.13661631  0.28383706  0.89142579     0.20800
C830        C  0.10767012  0.30238387  0.91937601     0.25800
C831        C  0.08054612  0.33516275  0.90614106    -0.22200
C832        C  0.08662758  0.35117893  0.86569080     0.20700
F833        F  0.06455324  0.38465623  0.85227625    -0.12200
F834        F  0.11742048  0.34756468  0.79818996    -0.14500
F835        F  0.10698397  0.28847668  0.95952419    -0.14500
F836        F  0.16257534  0.25299485  0.90522976    -0.12200
C837        C  0.17142913  0.36718410  0.60630574     0.25900
C838        C  0.15829206  0.34498298  0.64151899    -0.22300
C839        C  0.11422313  0.33289252  0.64470070     0.20800
C840        C  0.08488187  0.33900812  0.61097643     0.25800
C841        C  0.09891685  0.35789846  0.57368849    -0.22200
C842        C  0.14188482  0.37435464  0.57308461     0.20700
F843        F  0.15751129  0.39288821  0.53848188    -0.12200
F844        F  0.21402050  0.37849187  0.60229648    -0.14500
F845        F  0.04405509  0.32244721  0.61288500    -0.14500
F846        F  0.10071389  0.31139694  0.67870785    -0.12200
C847        C  0.32914604  0.14705927  0.88384232     0.25900
C848        C  0.34776618  0.16539468  0.84835500    -0.22300
C849        C  0.39397143  0.16699985  0.84619403     0.20800
C850        C  0.41990281  0.15906951  0.88196971     0.25800
C851        C  0.40045913  0.14693890  0.91966244    -0.22200
C852        C  0.35542308  0.13719149  0.91880048     0.20700
F853        F  0.33553244  0.12271157  0.95337369    -0.12200
F854        F  0.28512883  0.14249530  0.88666408    -0.14500
F855        F  0.46351970  0.16714348  0.88103891    -0.14500
F856        F  0.41400584  0.17946213  0.81054827    -0.12200
C857        C  0.79132209  0.42400005  0.59354364     0.25900
C858        C  0.81997052  0.40923874  0.56251325    -0.22300
C859        C  0.83929672  0.37082666  0.56879555     0.20800
C860        C  0.82709155  0.34614886  0.60263595     0.25800
C861        C  0.79596085  0.35961206  0.63162525    -0.22200
C862        C  0.77938919  0.39935682  0.62767709     0.20700
F863        F  0.75138567  0.41417851  0.65661362    -0.12200
F864        F  0.77307952  0.46161906  0.58970509    -0.14500
F865        F  0.84349990  0.30769753  0.60532470    -0.14500
F866        F  0.86716648  0.35531418  0.54039038    -0.12200
C867        C  0.65205268  0.35616991  0.86968719     0.25900
C868        C  0.64721885  0.35384541  0.82532742    -0.22300
C869        C  0.62356076  0.38500023  0.80491012     0.20800
C870        C  0.61207148  0.42057531  0.82699953     0.25800
C871        C  0.62473779  0.42576416  0.86949133    -0.22200
C872        C  0.64129675  0.39200547  0.89130636     0.20700
F873        F  0.65263852  0.39582049  0.93259692    -0.12200
F874        F  0.67139999  0.32564424  0.89189489    -0.14500
F875        F  0.59372622  0.45195401  0.80545437    -0.14500
F876        F  0.61519260  0.38295486  0.76289991    -0.12200
C877        C  0.84545910  0.12550547  0.64895451     0.25900
C878        C  0.86387096  0.15466707  0.67699429    -0.22300
C879        C  0.90758195  0.15046387  0.69007553     0.20800
C880        C  0.92985299  0.11433673  0.68095450     0.25800
C881        C  0.90841257  0.08196702  0.65926496    -0.22200
C882        C  0.86754123  0.08921481  0.64025551     0.20700
F883        F  0.84615030  0.05906933  0.61859166    -0.12200
F884        F  0.80431644  0.13043239  0.63319282    -0.14500
F885        F  0.97016362  0.10864734  0.69828895    -0.14500
F886        F  0.92680993  0.17869066  0.71601265    -0.12200
C887        C  0.58939721  0.19914012  0.65296672     0.25900
C888        C  0.63339994  0.18971942  0.64722237    -0.22300
C889        C  0.64421752  0.15853000  0.61836014     0.20800
C890        C  0.61151774  0.13940216  0.59352013     0.25800
C891        C  0.56750981  0.14983925  0.59850873    -0.22200
C892        C  0.55683428  0.17915402  0.62938927     0.20700
F893        F  0.51508369  0.19148178  0.63426673    -0.12200
F894        F  0.57778557  0.22800110  0.68144403    -0.14500
F895        F  0.62291619  0.11244438  0.56305624    -0.14500
F896        F  0.68658007  0.14803350  0.61273446    -0.12200
C897        C  0.68707299  0.07074627  0.87338718     0.25900
C898        C  0.66377429  0.08536217  0.90827581    -0.22300
C899        C  0.65024359  0.12638814  0.90803146     0.20800
C900        C  0.66578838  0.15355529  0.87779314     0.25800
C901        C  0.69484787  0.14020059  0.84693894    -0.22200
C902        C  0.70288448  0.09803776  0.84308822     0.20700
F903        F  0.72870299  0.08367232  0.81208134    -0.12200
F904        F  0.69789450  0.03055351  0.87080653    -0.14500
F905        F  0.65354658  0.19343730  0.87958018    -0.14500
F906        F  0.62533122  0.14151466  0.93899156    -0.12200
C907        C  0.89381937  0.35415750  0.91504667     0.25900
C908        C  0.93646776  0.36058423  0.89995040    -0.22300
C909        C  0.94483423  0.35027612  0.85785294     0.20800
C910        C  0.91232711  0.33248361  0.83219990     0.25800
C911        C  0.87065135  0.32296948  0.84815784    -0.22200
C912        C  0.86152314  0.33490935  0.88980785     0.20700
F913        F  0.82202514  0.32653726  0.90690738    -0.12200
F914        F  0.88471065  0.36305297  0.95573392    -0.14500
F915        F  0.92308396  0.32196191  0.79235239    -0.14500
F916        F  0.98575910  0.35312742  0.84241045    -0.12200
C917        C  0.16369934  0.66203801  0.60151859     0.25900
C918        C  0.19793533  0.65132553  0.62925078    -0.22300
C919        C  0.21317646  0.61099755  0.62895288     0.20800
C920        C  0.19701692  0.58283246  0.59904193     0.25800
C921        C  0.16639373  0.59491463  0.56774612    -0.22200
C922        C  0.14793966  0.63409529  0.57129661     0.20700
F923        F  0.11702338  0.64687262  0.54375433    -0.12200
F924        F  0.14720708  0.70055820  0.60200713    -0.14500
F925        F  0.21399379  0.54453528  0.59847525    -0.14500
F926        F  0.24390635  0.59895665  0.65745906    -0.12200
C927        C  0.44963491  0.84426885  0.67919805     0.25900
C928        C  0.44436830  0.88536310  0.66630088    -0.22300
C929        C  0.40295041  0.89819402  0.65279006     0.20800
C930        C  0.36682832  0.87134649  0.65496339     0.25800
C931        C  0.37163283  0.83088071  0.67021957    -0.22200
C932        C  0.41380873  0.81730322  0.68080605     0.20700
F933        F  0.41994435  0.77906002  0.69645011    -0.12200
F934        F  0.48936470  0.83059505  0.69222848    -0.14500
F935        F  0.32667736  0.88558073  0.64407221    -0.14500
F936        F  0.39711622  0.93724080  0.63937187    -0.12200
C937        C  0.14266262  0.65580166  0.87330026     0.25900
C938        C  0.13082250  0.66913422  0.83246297    -0.22300
C939        C  0.09153157  0.65355271  0.81452401     0.20800
C940        C  0.06249283  0.63008635  0.83863293     0.25800
C941        C  0.07178227  0.62183752  0.88127601    -0.22200
C942        C  0.11364385  0.63224723  0.89716156     0.20700
F943        F  0.12411004  0.62426308  0.93796206    -0.12200
F944        F  0.18132378  0.66741295  0.89144080    -0.14500
F945        F  0.02328806  0.61937719  0.82138299    -0.14500
F946        F  0.07992690  0.66255467  0.77424591    -0.12200
C947        C  0.36175230  0.66237679  0.86177005     0.25900
C948        C  0.35511245  0.65696514  0.81797312    -0.22300
C949        C  0.36764713  0.61959215  0.79988297     0.20800
C950        C  0.37963484  0.58653126  0.82565477     0.25800
C951        C  0.37831768  0.58999764  0.86992728    -0.22200
C952        C  0.37209364  0.62894204  0.88753919     0.20700
F953        F  0.36976916  0.63332993  0.92991935    -0.12200
F954        F  0.35358667  0.69904263  0.88029018    -0.14500
F955        F  0.38472516  0.54925639  0.80745867    -0.14500
F956        F  0.36277538  0.61316516  0.75786224    -0.12200
C957        C  0.31070383  0.92787709  0.88973048     0.25900
C958        C  0.32041702  0.91086217  0.92927165    -0.22300
C959        C  0.31722366  0.86823187  0.93435746     0.20800
C960        C  0.30397224  0.84305645  0.90114887     0.25800
C961        C  0.29135134  0.85995975  0.86216745    -0.22200
C962        C  0.29667109  0.90262442  0.85620388     0.20700
F963        F  0.28627159  0.92025404  0.81879132    -0.12200
F964        F  0.31148316  0.96918562  0.88459899    -0.14500
F965        F  0.30159540  0.80204917  0.90820639    -0.14500
F966        F  0.32139385  0.85114512  0.97296766    -0.12200
C967        C  0.12040739  0.89216886  0.68192434     0.25900
C968        C  0.13462583  0.85444273  0.66616591    -0.22300
C969        C  0.13957693  0.84986932  0.62250979     0.20800
C970        C  0.13889827  0.88441738  0.59639803     0.25800
C971        C  0.13111328  0.92339629  0.61340968    -0.22200
C972        C  0.11719773  0.92619923  0.65534747     0.20700
F973        F  0.10779011  0.96308253  0.67251875    -0.12200
F974        F  0.11563824  0.89743896  0.72397779    -0.14500
F975        F  0.15205084  0.88078031  0.55598333    -0.14500
F976        F  0.15254478  0.81345432  0.60636562    -0.12200
C977        C  0.80214568  0.66599205  0.58265022     0.25900
C978        C  0.81627030  0.66104351  0.62442958    -0.22300
C979        C  0.85878204  0.64563957  0.63206406     0.20800
C980        C  0.88778786  0.63923953  0.59884855     0.25800
C981        C  0.87520260  0.64885854  0.55756058    -0.22200
C982        C  0.83160095  0.66109840  0.54971448     0.20700
F983        F  0.81894189  0.67332040  0.51074090    -0.12200
F984        F  0.76172823  0.68087860  0.57395289    -0.14500
F985        F  0.92935630  0.62732588  0.60745274    -0.14500
F986        F  0.87350804  0.64009560  0.67212995    -0.12200
C987        C  0.63018251  0.64094328  0.84347963     0.25900
C988        C  0.64033597  0.63490150  0.80051564    -0.22300
C989        C  0.63578097  0.59524233  0.78378723     0.20800
C990        C  0.62772560  0.56187960  0.81051936     0.25800
C991        C  0.62467149  0.56743158  0.85453943    -0.22200
C992        C  0.62352419  0.60746850  0.87035492     0.20700
F993        F  0.62135740  0.61400052  0.91246662    -0.12200
F994        F  0.63189263  0.67915763  0.86058880    -0.14500
F995        F  0.63015408  0.52354510  0.79425417    -0.14500
F996        F  0.64521000  0.58787222  0.74290506    -0.12200
C997        C  0.60316389  0.81375051  0.62986906     0.25900
C998        C  0.64601240  0.82416632  0.64220901    -0.22300
C999        C  0.65932713  0.86579533  0.63964184     0.20800
C1000       C  0.62819288  0.89664042  0.63619587     0.25800
C1001       C  0.58385941  0.88622860  0.63211208    -0.22200
C1002       C  0.57224676  0.84484389  0.62407091     0.20700
F1003       F  0.52992851  0.83393884  0.61688246    -0.12200
F1004       F  0.58984614  0.77394321  0.62902580    -0.14500
F1005       F  0.64064600  0.93627660  0.64266795    -0.14500
F1006       F  0.70169233  0.87688068  0.64718609    -0.12200
C1007       C  0.67577961  0.81617967  0.90946662     0.25900
C1008       C  0.66714394  0.82576582  0.86715330    -0.22300
C1009       C  0.62741964  0.84527718  0.85662969     0.20800
C1010       C  0.59570220  0.85206206  0.88750601     0.25800
C1011       C  0.60341975  0.83972389  0.92916394    -0.22200
C1012       C  0.64452060  0.82325301  0.94005885     0.20700
F1013       F  0.65327472  0.81103791  0.98006801    -0.12200
F1014       F  0.71365675  0.79759016  0.92093008    -0.14500
F1015       F  0.55657575  0.86830527  0.87628788    -0.14500
F1016       F  0.61760425  0.85433137  0.81595272    -0.12200
C1017       C  0.82858119  0.90455355  0.68378983     0.25900
C1018       C  0.84905707  0.86718360  0.69397860    -0.22300
C1019       C  0.89391663  0.86315215  0.68526678     0.20800
C1020       C  0.91847364  0.89704591  0.67137939     0.25800
C1021       C  0.89849372  0.93518666  0.66491177    -0.22200
C1022       C  0.85302458  0.93806390  0.66973589     0.20700
F1023       F  0.83313306  0.97499972  0.66651704    -0.12200
F1024       F  0.78503643  0.90965636  0.68937834    -0.14500
F1025       F  0.96247567  0.89365875  0.66799636    -0.14500
F1026       F  0.91473607  0.82731637  0.69283588    -0.12200
C1027       C  0.85753473  0.67629202  0.88650677     0.25900
C1028       C  0.85718792  0.67150815  0.84263986    -0.22300
C1029       C  0.88503656  0.64261085  0.82440603     0.20800
C1030       C  0.91637526  0.62264515  0.84916137     0.25800
C1031       C  0.92188783  0.63325625  0.89177462    -0.22200
C1032       C  0.88992654  0.65757756  0.91091930     0.20700
F1033       F  0.89236127  0.66607409  0.95273055    -0.12200
F1034       F  0.82890298  0.70179041  0.90531545    -0.14500
F1035       F  0.94344495  0.59563242  0.83064955    -0.14500
F1036       F  0.88265936  0.63450156  0.78250547    -0.12200
loop_ 
_geom_bond_atom_site_label_1 
_geom_bond_atom_site_label_2 
_geom_bond_distance 
_geom_bond_site_symmetry_2 
_ccdc_geom_bond_type 
N1            C6   1.359       .  A
N1            C5   1.358       .  A
N1           H33   1.043       .  S
N2            C9   1.344   1_545  A
N2           C10   1.354       .  A
N3            C8   1.340       .  A
N3            C7   1.342       .  A
N3           H34   1.046       .  S
N4           C11   1.350       .  A
N4           C12   1.360   1_565  A
C5           C13   1.375       .  A
C5           C21   1.408       .  A
C6           C22   1.436       .  A
C6           C14   1.395       .  A
C7           C15   1.386       .  A
C7           C24   1.404       .  A
C8           C23   1.405       .  A
C8           C16   1.385       .  A
C9           C21   1.423       .  A
C9           C17   1.392   1_565  A
C10          C24   1.414       .  A
C10          C18   1.381       .  A
C11          C19   1.390       .  A
C11          C22   1.432       .  A
C12          C20   1.385   1_545  A
C12          C23   1.432       .  A
C13          C14   1.367       .  A
C13          H25   1.079       .  S
C14          H26   1.074       .  S
C15          C16   1.379       .  A
C15          H27   1.081       .  S
C16          H28   1.081       .  S
C17          C18   1.391       .  A
C17          H29   1.080   1_545  S
C18          H30   1.082       .  S
C19          C20   1.402       .  A
C19          H31   1.082       .  S
C20          H32   1.082   1_565  S
C21         N536   1.447       .  S
C22         N466   1.466       .  S
C23         N410   1.482       .  S
C24         N508   1.459       .  S
N35          C40   1.363       .  A
N35          C39   1.361       .  A
N35          H67   1.039       .  S
N36          C43   1.360   1_455  A
N36          C44   1.362       .  A
N37          C42   1.360       .  A
N37          C41   1.362       .  A
N37          H68   1.037       .  S
N38          C45   1.364       .  A
N38          C46   1.362   1_655  A
C39          C47   1.375       .  A
C39          C55   1.414       .  A
C40          C56   1.439       .  A
C40          C48   1.393       .  A
C41          C49   1.388       .  A
C41          C58   1.432       .  A
C42          C57   1.413       .  A
C42          C50   1.375       .  A
C43          C55   1.435       .  A
C43          C51   1.386   1_655  A
C44          C58   1.428       .  A
C44          C52   1.379       .  A
C45          C53   1.383       .  A
C45          C56   1.435       .  A
C46          C54   1.387   1_455  A
C46          C57   1.441       .  A
C47          C48   1.364       .  A
C47          H59   1.079       .  S
C48          H60   1.071       .  S
C49          C50   1.359       .  A
C49          H61   1.071       .  S
C50          H62   1.079       .  S
C51          C52   1.372       .  A
C51          H63   1.077   1_455  S
C52          H64   1.075       .  S
C53          C54   1.383       .  A
C53          H65   1.081       .  S
C54          H66   1.080       .  S
C55         N550   1.461       .  S
C56         N438   1.474       .  S
C57         N487   1.464       .  S
C58         N473   1.469       .  S
N69          C74   1.358       .  A
N69          C73   1.357       .  A
N69         H101   1.031       .  S
N70          C77   1.364   1_554  A
N70          C78   1.364       .  A
N71          C76   1.355       .  A
N71          C75   1.356       .  A
N71         H102   1.026       .  S
N72          C79   1.365   1_554  A
N72          C80   1.365       .  A
C73          C81   1.385       .  A
C73          C89   1.420       .  A
C74          C90   1.419       .  A
C74          C82   1.385       .  A
C75          C83   1.385       .  A
C75          C92   1.418       .  A
C76          C91   1.418       .  A
C76          C84   1.386       .  A
C77          C89   1.441       .  A
C77          C85   1.386       .  A
C78          C92   1.440       .  A
C78          C86   1.384       .  A
C79          C87   1.387       .  A
C79          C90   1.444       .  A
C80          C88   1.384       .  A
C80          C91   1.441       .  A
C81          C82   1.377       .  A
C81          H93   1.080       .  S
C82          H94   1.082       .  S
C83          C84   1.379       .  A
C83          H95   1.082       .  S
C84          H96   1.082       .  S
C85          C86   1.371   1_556  A
C85          H97   1.077       .  S
C86          H98   1.079       .  S
C87          C88   1.372   1_556  A
C87          H99   1.077       .  S
C88         H100   1.079       .  S
C89         N515   1.461       .  S
C90         N543   1.463       .  S
C91         N431   1.459       .  S
C92         N445   1.461       .  S
N103        C108   1.350       .  A
N103        C107   1.348   1_556  A
N103        H135   1.037   1_655  S
N104        C111   1.354       .  A
N104        C112   1.351       .  A
N105        C110   1.348   1_554  A
N105        C109   1.346       .  A
N105        H136   1.044   1_455  S
N106        C113   1.350       .  A
N106        C114   1.351       .  A
C107        C115   1.387       .  A
C107        C123   1.415       .  A
C108        C124   1.418       .  A
C108        C116   1.386       .  A
C109        C117   1.389       .  A
C109        C126   1.414       .  A
C110        C125   1.406       .  A
C110        C118   1.380       .  A
C111        C123   1.417   1_455  A
C111        C119   1.392   1_455  A
C112        C126   1.419       .  A
C112        C120   1.382   1_455  A
C113        C121   1.390   1_455  A
C113        C124   1.419   1_455  A
C114        C122   1.385   1_455  A
C114        C125   1.423       .  A
C115        C116   1.374   1_554  A
C115        H127   1.082       .  S
C116        H128   1.082       .  S
C117        C118   1.381   1_554  A
C117        H129   1.081       .  S
C118        H130   1.082       .  S
C119        C120   1.398       .  A
C119        H131   1.082       .  S
C120        H132   1.082       .  S
C121        C122   1.402       .  A
C121        H133   1.081       .  S
C122        H134   1.081       .  S
C123        N452   1.462       .  S
C124        N529   1.462       .  S
C125        N494   1.465       .  S
C126        N396   1.469       .  S
N137        C142   1.359       .  A
N137        C141   1.360   1_565  A
N137        H169   1.039   1_556  S
N138        C145   1.358       .  A
N138        C146   1.358       .  A
N139        C144   1.359   1_545  A
N139        C143   1.359       .  A
N139        H170   1.036       .  S
N140        C147   1.358       .  A
N140        C148   1.358       .  A
C141        C149   1.392   1_545  A
C141        C157   1.434       .  A
C142        C158   1.411       .  A
C142        C150   1.375       .  A
C143        C151   1.376   1_556  A
C143        C160   1.414       .  A
C144        C159   1.431       .  A
C144        C152   1.389   1_566  A
C145        C157   1.426       .  A
C145        C153   1.383       .  A
C146        C160   1.431       .  A
C146        C154   1.386   1_556  A
C147        C155   1.385       .  A
C147        C158   1.429       .  A
C148        C156   1.380       .  A
C148        C159   1.425       .  A
C149        C150   1.363       .  A
C149        H161   1.072       .  S
C150        H162   1.078       .  S
C151        C152   1.364       .  A
C151        H163   1.076       .  S
C152        H164   1.074       .  S
C153        C154   1.378   1_556  A
C153        H165   1.079   1_556  S
C154        H166   1.081       .  S
C155        C156   1.374       .  A
C155        H167   1.078       .  S
C156        H168   1.075       .  S
C157        N424   1.462       .  S
C158        N480   1.458       .  S
C159        N459   1.460       .  S
C160        N403   1.457       .  S
O171        C187   1.271       .  A
O171       Zn177   1.994       .  S
C172        O188   1.273       .  A
C172        O185   1.273       .  A
C172       C1008   1.486       .  S
O173        C186   1.288       .  A
O173       Cd180   2.170       .  S
O174        C192   1.264       .  A
O174       Cd183   1.983       .  S
O175        C189   1.277       .  A
O175       Cd179   2.096       .  S
O176        C187   1.275       .  A
O176       Cd179   2.069       .  S
Zn177       O188   2.009       .  S
Zn177       O190   1.940       .  S
Zn177       O182   1.917       .  S
O178        C189   1.274       .  A
O178       Cd183   2.058       .  S
Cd179       O181   2.022       .  S
Cd179       O182   1.990       .  S
Cd180       O184   2.151       .  S
Cd180       O193   2.152       .  S
Cd180       O182   2.051       .  S
O181        C191   1.268       .  A
O182       Cd183   1.979       .  S
Cd183       O185   2.086       .  S
O184        C191   1.287       .  A
C186        O190   1.265       .  A
C186        C988   1.495       .  S
C187       C1028   1.472       .  S
C189       C1018   1.494       .  S
C191        C978   1.489       .  S
C192        O193   1.286       .  A
C192        C998   1.485       .  S
O194        C210   1.279       .  A
O194       Zn200   2.052       .  S
C195        O211   1.277       .  A
C195        O208   1.273       .  A
C195        C968   1.473       .  S
O196        C209   1.284       .  A
O196       Cd203   2.120       .  S
O197        C215   1.269       .  A
O197       Cd206   2.034       .  S
O198        C212   1.274       .  A
O198       Cd202   2.051       .  S
O199        C210   1.275       .  A
O199       Cd202   2.068       .  S
Zn200       O211   2.057       .  S
Zn200       O213   1.967       .  S
Zn200       O205   1.956       .  S
O201        C212   1.272       .  A
O201       Cd206   2.066       .  S
Cd202       O204   2.036       .  S
Cd202       O205   1.974       .  S
Cd203       O207   2.125       .  S
Cd203       O216   2.128       .  S
Cd203       O205   2.025       .  S
O204        C214   1.269       .  A
O205       Cd206   1.990       .  S
Cd206       O208   2.050       .  S
O207        C214   1.281       .  A
C209        O213   1.269       .  A
C209        C918   1.476       .  S
C210        C938   1.500       .  S
C212        C961   1.486       .  S
C214        C948   1.494       .  S
C215        O216   1.284       .  A
C215        C931   1.489       .  S
O217        C233   1.271       .  A
O217       Zn223   1.985       .  S
C218        O234   1.273       .  A
C218        O231   1.275       .  A
C218        C901   1.477       .  S
O219        C232   1.283       .  A
O219       Cd226   2.117       .  S
O220        C238   1.270       .  A
O220       Cd229   2.038       .  S
O221        C235   1.275       .  A
O221       Cd225   2.066       .  S
O222        C233   1.275       .  A
O222       Cd225   2.086       .  S
Zn223       O234   2.018       .  S
Zn223       O236   1.971       .  S
Zn223       O228   1.939       .  S
O224        C235   1.278       .  A
O224       Cd229   2.093       .  S
Cd225       O227   2.042       .  S
Cd225       O228   1.996       .  S
Cd226       O230   2.122       .  S
Cd226       O239   2.125       .  S
Cd226       O228   2.016       .  S
O227        C237   1.271       .  A
O228       Cd229   1.994       .  S
Cd229       O231   2.060       .  S
O230        C237   1.283       .  A
C232        O236   1.266       .  A
C232        C888   1.478       .  S
C233        C878   1.476       .  S
C235        C911   1.496       .  S
C237        C861   1.481       .  S
C238        O239   1.283       .  A
C238        C868   1.497       .  S
O240        C256   1.271       .  A
O240       Zn246   2.008       .  S
C241        O257   1.271       .  A
C241        O254   1.274       .  A
C241        C808   1.465       .  S
O242        C255   1.284       .  A
O242       Cd249   2.139       .  S
O243        C261   1.270       .  A
O243       Cd252   2.043       .  S
O244        C258   1.275       .  A
O244       Cd248   2.067       .  S
O245        C256   1.274       .  A
O245       Cd248   2.089       .  S
Zn246       O257   1.992       .  S
Zn246       O259   1.961       .  S
Zn246       O251   1.930       .  S
O247        C258   1.275       .  A
O247       Cd252   2.090       .  S
Cd248       O250   1.995       .  S
Cd248       O251   1.986       .  S
Cd249       O253   2.141       .  S
Cd249       O262   2.134       .  S
Cd249       O251   2.036       .  S
O250        C260   1.265       .  A
O251       Cd252   1.992       .  S
Cd252       O254   2.044       .  S
O253        C260   1.286       .  A
C255        O259   1.266       .  A
C255        C818   1.496       .  S
C256        C838   1.475       .  S
C258        C801   1.475       .  S
C260        C828   1.480       .  S
C261        O262   1.284       .  A
C261        C848   1.497       .  S
O263        C279   1.276       .  A
O263       Zn269   2.025       .  S
C264        O280   1.275       .  A
C264        O277   1.279       .  A
C264        C791   1.495       .  S
O265        C278   1.284       .  A
O265       Cd272   2.137       .  S
O266        C284   1.270       .  A
O266       Cd275   2.039       .  S
O267        C281   1.277       .  A
O267       Cd271   2.085       .  S
O268        C279   1.276       .  A
O268       Cd271   2.086       .  S
Zn269       O280   2.022       .  S
Zn269       O282   1.999       .  S
Zn269       O274   1.935       .  S
O270        C281   1.278       .  A
O270       Cd275   2.111       .  S
Cd271       O273   2.018       .  S
Cd271       O274   1.994       .  S
Cd272       O276   2.120       .  S
Cd272       O285   2.131       .  S
Cd272       O274   2.029       .  S
O273        C283   1.266       .  A
O274       Cd275   1.999       .  S
Cd275       O277   2.075       .  S
O276        C283   1.283       .  A
C278        O282   1.271       .  A
C278        C748   1.504       .  S
C279        C758   1.476       .  S
C281        C781   1.490       .  S
C283        C768   1.466       .  S
C284        O285   1.283       .  A
C284        C738   1.497       .  S
O286        C302   1.276       .  A
O286       Zn292   2.048       .  S
C287        O303   1.275       .  A
C287        O300   1.277       .  A
C287        C728   1.497       .  S
O288        C301   1.278       .  A
O288       Cd295   2.079       .  S
O289        C307   1.267       .  A
O289       Cd298   2.037       .  S
O290        C304   1.277       .  A
O290       Cd294   2.080       .  S
O291        C302   1.276       .  A
O291       Cd294   2.066       .  S
Zn292       O303   2.014       .  S
Zn292       O305   1.968       .  S
Zn292       O297   1.945       .  S
O293        C304   1.278       .  A
O293       Cd298   2.077       .  S
Cd294       O296   2.053       .  S
Cd294       O297   1.981       .  S
Cd295       O299   2.113       .  S
Cd295       O308   2.100       .  S
Cd295       O297   2.017       .  S
O296        C306   1.271       .  A
O297       Cd298   2.006       .  S
Cd298       O300   2.096       .  S
O299        C306   1.280       .  A
C301        O305   1.268       .  A
C301        C688   1.466       .  S
C302        C701   1.489       .  S
C304        C708   1.491       .  S
C306        C721   1.499       .  S
C307        O308   1.278       .  A
C307        C678   1.466       .  S
O309        C325   1.274       .  A
O309       Zn315   2.022       .  S
C310        O326   1.275       .  A
C310        O323   1.279       .  A
C310        C651   1.491       .  S
O311        C324   1.285       .  A
O311       Cd318   2.146       .  S
O312        C330   1.268       .  A
O312       Cd321   2.034       .  S
O313        C327   1.278       .  A
O313       Cd317   2.090       .  S
O314        C325   1.277       .  A
O314       Cd317   2.079       .  S
Zn315       O326   2.000       .  S
Zn315       O328   1.988       .  S
Zn315       O320   1.939       .  S
O316        C327   1.281       .  A
O316       Cd321   2.108       .  S
Cd317       O319   2.036       .  S
Cd317       O320   1.991       .  S
Cd318       O322   2.128       .  S
Cd318       O331   2.135       .  S
Cd318       O320   2.029       .  S
O319        C329   1.270       .  A
O320       Cd321   2.016       .  S
Cd321       O323   2.108       .  S
O322        C329   1.283       .  A
C324        O328   1.267       .  A
C324        C658   1.490       .  S
C325        C641   1.496       .  S
C327        C671   1.503       .  S
C329        C631   1.495       .  S
C330        O331   1.285       .  A
C330        C618   1.475       .  S
N332        C337   1.356   1_455  A
N332        C336   1.353       .  A
N332        H364   1.041   1_545  S
N333        C340   1.356       .  A
N333        C341   1.359       .  A
N334        C339   1.358       .  A
N334        C338   1.362   1_655  A
N334        H365   1.041   1_545  S
N335        C342   1.360       .  A
N335        C343   1.358   1_545  A
C336        C344   1.378       .  A
C336        C352   1.406       .  A
C337        C353   1.427       .  A
C337        C345   1.392   1_655  A
C338        C346   1.386   1_455  A
C338        C355   1.430       .  A
C339        C354   1.418       .  A
C339        C347   1.378       .  A
C340        C352   1.426       .  A
C340        C348   1.386   1_545  A
C341        C355   1.421       .  A
C341        C349   1.381   1_545  A
C342        C350   1.380   1_545  A
C342        C353   1.424       .  A
C343        C351   1.390       .  A
C343        C354   1.436   1_565  A
C344        C345   1.368       .  A
C344        H356   1.080       .  S
C345        H357   1.076       .  S
C346        C347   1.361       .  A
C346        H358   1.073   1_655  S
C347        H359   1.072       .  S
C348        C349   1.376       .  A
C348        H360   1.080       .  S
C349        H361   1.075       .  S
C350        C351   1.379       .  A
C350        H362   1.080       .  S
C351        H363   1.077       .  S
C352        N501   1.448   1_545  S
C353        N522   1.459       .  S
C354        N417   1.460       .  S
C355        N366   1.467       .  S
N366        C370   1.370   1_545  A
N366        C367   1.371       .  A
C367        C368   1.381       .  A
C367        C608   1.488       .  S
C368        C369   1.356   1_545  A
C368        H371   1.082       .  S
C369        C370   1.383       .  A
C369        H372   1.083       .  S
C370        C731   1.485       .  S
O373        C389   1.272       .  A
O373       Zn379   2.000       .  S
C374        O390   1.271       .  A
C374        O387   1.272       .  A
C374        C598   1.467       .  S
O375        C388   1.286       .  A
O375       Cd382   2.155       .  S
O376        C394   1.269       .  A
O376       Cd385   2.028       .  S
O377        C391   1.276       .  A
O377       Cd381   2.081       .  S
O378        C389   1.274       .  A
O378       Cd381   2.090       .  S
Zn379       O390   2.003       .  S
Zn379       O392   1.960       .  S
Zn379       O384   1.930       .  S
O380        C391   1.275       .  A
O380       Cd385   2.074       .  S
Cd381       O383   2.006       .  S
Cd381       O384   1.992       .  S
Cd382       O386   2.132       .  S
Cd382       O395   2.161       .  S
Cd382       O384   2.043       .  S
O383        C393   1.267       .  A
O384       Cd385   1.986       .  S
Cd385       O387   2.049       .  S
O386        C393   1.284       .  A
C388        O392   1.267       .  A
C388        C571   1.500       .  S
C389        C588   1.477       .  S
C391        C611   1.487       .  S
C393        C578   1.485       .  S
C394        O395   1.288       .  A
C394        C558   1.493       .  S
N396        C400   1.372   1_455  A
N396        C397   1.363       .  A
C397        C398   1.376       .  A
C397        C601   1.479       .  S
C398        C399   1.363   1_455  A
C398        H401   1.081       .  S
C399        C400   1.389       .  A
C399        H402   1.084       .  S
C400        C668   1.502       .  S
N403        C407   1.367   1_556  A
N403        C404   1.360       .  A
C404        C405   1.380       .  A
C404        C851   1.490       .  S
C405        C406   1.370   1_556  A
C405        H408   1.083       .  S
C406        C407   1.385       .  A
C406        H409   1.083       .  S
C407        C591   1.490       .  S
N410        C414   1.375       .  A
N410        C411   1.373       .  A
C411        C412   1.390       .  A
C411        C661   1.508       .  S
C412        C413   1.363       .  A
C412        H415   1.084       .  S
C413        C414   1.379       .  A
C413        H416   1.079       .  S
C414        C581   1.497       .  S
N417        C421   1.363       .  A
N417        C418   1.365   1_545  A
C418        C419   1.387       .  A
C418        C778   1.505       .  S
C419        C420   1.370   1_565  A
C419        H422   1.082       .  S
C420        C421   1.383       .  A
C420        H423   1.083       .  S
C421        C648   1.488       .  S
N424        C428   1.365   1_556  A
N424        C425   1.368       .  A
C425        C426   1.384       .  A
C425        C898   1.487       .  S
C426        C427   1.361   1_556  A
C426        H429   1.082       .  S
C427        C428   1.382       .  A
C427        H430   1.083       .  S
C428        C638   1.479       .  S
N431        C435   1.365       .  A
N431        C432   1.364       .  A
C432        C433   1.382       .  A
C432        C628   1.479       .  S
C433        C434   1.363       .  A
C433        H436   1.083       .  S
C434        C435   1.381       .  A
C434        H437   1.083       .  S
C435        C751   1.484       .  S
N438        C442   1.371       .  A
N438        C439   1.373       .  A
C439        C440   1.383       .  A
C439        C858   1.492       .  S
C440        C441   1.358       .  A
C440        H443   1.082       .  S
C441        C442   1.384       .  A
C441        H444   1.084       .  S
C442        C621   1.486       .  S
N445        C449   1.366       .  A
N445        C446   1.364       .  A
C446        C447   1.381       .  A
C446        C568   1.482       .  S
C447        C448   1.361       .  A
C447        H450   1.083       .  S
C448        C449   1.382       .  A
C448        H451   1.083       .  S
C449        C718   1.480       .  S
N452        C456   1.371   1_655  A
N452        C453   1.368       .  A
C453        C454   1.377       .  A
C453        C788   1.480       .  S
C454        C455   1.359   1_655  A
C454        H457   1.083       .  S
C455        C456   1.390       .  A
C455        H458   1.081       .  S
C456        C711   1.498       .  S
N459        C463   1.368   1_556  A
N459        C460   1.366       .  A
C460        C461   1.381       .  A
C460        C958   1.473       .  S
C461        C462   1.362   1_556  A
C461        H464   1.083       .  S
C462        C463   1.383       .  A
C462        H465   1.083       .  S
C463        C698   1.485       .  S
N466        C470   1.367       .  A
N466        C467   1.366       .  A
C467        C468   1.383       .  A
C467        C691   1.484       .  S
C468        C469   1.355       .  A
C468        H471   1.081       .  S
C469        C470   1.386       .  A
C469        H472   1.084       .  S
C470        C771   1.485       .  S
N473        C477   1.367       .  A
N473        C474   1.375       .  A
C474        C475   1.387       .  A
C474        C921   1.496       .  S
C475        C476   1.355       .  A
C475        H478   1.082       .  S
C476        C477   1.379       .  A
C476        H479   1.083       .  S
C477        C681   1.468       .  S
N480        C484   1.359   1_556  A
N480        C481   1.362       .  A
C481        C482   1.387       .  A
C481       C1011   1.488       .  S
C482        C483   1.370   1_556  A
C482        H485   1.083       .  S
C483        C484   1.382       .  A
C483        H486   1.083       .  S
C484        C761   1.492       .  S
N487        C491   1.362       .  A
N487        C488   1.365       .  A
C488        C489   1.384       .  A
C488        C561   1.497       .  S
C489        C490   1.369       .  A
C489        H492   1.083       .  S
C490        C491   1.383       .  A
C490        H493   1.083       .  S
C491        C841   1.498       .  S
N494        C498   1.373       .  A
N494        C495   1.370   1_455  A
C495        C496   1.384       .  A
C495        C908   1.492       .  S
C496        C497   1.357   1_655  A
C496        H499   1.083       .  S
C497        C498   1.381       .  A
C497        H500   1.080       .  S
C498        C831   1.497       .  S
N501        C505   1.356       .  A
N501        C502   1.359   1_565  A
C502        C503   1.384       .  A
C502        C821   1.483       .  S
C503        C504   1.371   1_545  A
C503        H506   1.083       .  S
C504        C505   1.381       .  A
C504        H507   1.083       .  S
C505        C971   1.482       .  S
N508        C512   1.360       .  A
N508        C509   1.364       .  A
C509        C510   1.386       .  A
C509        C891   1.483       .  S
C510        C511   1.365       .  A
C510        H513   1.084       .  S
C511        C512   1.380       .  A
C511        H514   1.081       .  S
C512        C811   1.481       .  S
N515        C519   1.368       .  A
N515        C516   1.362       .  A
C516        C517   1.379       .  A
C516        C798   1.480       .  S
C517        C518   1.361       .  A
C517        H520   1.083       .  S
C518        C519   1.385       .  A
C518        H521   1.083       .  S
C519        C951   1.485       .  S
N522        C526   1.369   1_545  A
N522        C523   1.364       .  A
C523        C524   1.379       .  A
C523        C881   1.478       .  S
C524        C525   1.360   1_545  A
C524        H527   1.083       .  S
C525        C526   1.384       .  A
C525        H528   1.083       .  S
C526       C1021   1.479       .  S
N529        C533   1.367       .  A
N529        C530   1.372   1_655  A
C530        C531   1.389       .  A
C530        C941   1.490       .  S
C531        C532   1.356   1_455  A
C531        H534   1.083       .  S
C532        C533   1.378       .  A
C532        H535   1.082       .  S
C533       C1031   1.481       .  S
N536        C540   1.352       .  A
N536        C537   1.357       .  A
C537        C538   1.384       .  A
C537        C928   1.488       .  S
C538        C539   1.372       .  A
C538        H541   1.083       .  S
C539        C540   1.383       .  A
C539        H542   1.083       .  S
C540       C1001   1.482       .  S
N543        C547   1.361       .  A
N543        C544   1.367       .  A
C544        C545   1.386       .  A
C544        C991   1.490       .  S
C545        C546   1.363       .  A
C545        H548   1.083       .  S
C546        C547   1.378       .  A
C546        H549   1.083       .  S
C547        C871   1.479       .  S
N550        C554   1.364       .  A
N550        C551   1.360       .  A
C551        C552   1.382       .  A
C551        C741   1.485       .  S
C552        C553   1.368       .  A
C552        H555   1.083       .  S
C553        C554   1.384       .  A
C553        H556   1.083       .  S
C554        C981   1.491       .  S
C557        C558   1.416       .  A
C557        C562   1.406       .  A
C557        F564   1.358       .  S
C558        C559   1.403       .  A
C559        C560   1.407       .  A
C559        F566   1.358       .  S
C560        C561   1.418       .  A
C560        F565   1.357       .  S
C561        C562   1.400       .  A
C562        F563   1.357       .  S
C567        C568   1.413       .  A
C567        C572   1.407       .  A
C567        F574   1.356       .  S
C568        C569   1.397       .  A
C569        C570   1.401       .  A
C569        F576   1.358       .  S
C570        C571   1.420       .  A
C570        F575   1.358       .  S
C571        C572   1.405       .  A
C572        F573   1.357       .  S
C577        C578   1.402       .  A
C577        C582   1.403       .  A
C577        F584   1.358       .  S
C578        C579   1.414       .  A
C579        C580   1.393       .  A
C579        F586   1.359       .  S
C580        C581   1.403       .  A
C580        F585   1.358       .  S
C581        C582   1.418       .  A
C582        F583   1.355       .  S
C587        C588   1.410       .  A
C587        C592   1.409       .  A
C587        F594   1.358       .  S
C588        C589   1.398       .  A
C589        C590   1.396       .  A
C589        F596   1.359       .  S
C590        C591   1.412       .  A
C590        F595   1.353       .  S
C591        C592   1.407       .  A
C592        F593   1.357       .  S
C597        C598   1.403       .  A
C597        C602   1.396       .  A
C597        F604   1.358       .  S
C598        C599   1.405       .  A
C599        C600   1.392       .  A
C599        F606   1.358       .  S
C600        C601   1.404       .  A
C600        F605   1.358       .  S
C601        C602   1.410       .  A
C602        F603   1.358       .  S
C607        C608   1.411       .  A
C607        C612   1.400       .  A
C607        F614   1.358       .  S
C608        C609   1.405       .  A
C609        C610   1.404       .  A
C609        F616   1.354       .  S
C610        C611   1.410       .  A
C610        F615   1.358       .  S
C611        C612   1.406       .  A
C612        F613   1.358       .  S
C617        C618   1.407       .  A
C617        C622   1.405       .  A
C617        F624   1.358       .  S
C618        C619   1.400       .  A
C619        C620   1.399       .  A
C619        F626   1.358       .  S
C620        C621   1.412       .  A
C620        F625   1.355       .  S
C621        C622   1.407       .  A
C622        F623   1.358       .  S
C627        C628   1.401       .  A
C627        C632   1.402       .  A
C627        F634   1.358       .  S
C628        C629   1.409       .  A
C629        C630   1.404       .  A
C629        F636   1.357       .  S
C630        C631   1.407       .  A
C630        F635   1.357       .  S
C631        C632   1.416       .  A
C632        F633   1.359       .  S
C637        C638   1.406       .  A
C637        C642   1.395       .  A
C637        F644   1.356       .  S
C638        C639   1.402       .  A
C639        C640   1.405       .  A
C639        F646   1.358       .  S
C640        C641   1.417       .  A
C640        F645   1.357       .  S
C641        C642   1.410       .  A
C642        F643   1.358       .  S
C647        C648   1.404       .  A
C647        C652   1.412       .  A
C647        F654   1.357       .  S
C648        C649   1.408       .  A
C649        C650   1.392       .  A
C649        F656   1.356       .  S
C650        C651   1.406       .  A
C650        F655   1.358       .  S
C651        C652   1.416       .  A
C652        F653   1.357       .  S
C657        C658   1.401       .  A
C657        C662   1.404       .  A
C657        F664   1.358       .  S
C658        C659   1.410       .  A
C659        C660   1.407       .  A
C659        F666   1.358       .  S
C660        C661   1.409       .  A
C660        F665   1.358       .  S
C661        C662   1.419       .  A
C662        F663   1.351       .  S
C667        C668   1.416       .  A
C667        C672   1.404       .  A
C667        F674   1.352       .  S
C668        C669   1.406       .  A
C669        C670   1.407       .  A
C669        F676   1.358       .  S
C670        C671   1.415       .  A
C670        F675   1.357       .  S
C671        C672   1.407       .  A
C672        F673   1.358       .  S
C677        C678   1.403       .  A
C677        C682   1.402       .  A
C677        F684   1.357       .  S
C678        C679   1.401       .  A
C679        C680   1.393       .  A
C679        F686   1.358       .  S
C680        C681   1.406       .  A
C680        F685   1.356       .  S
C681        C682   1.408       .  A
C682        F683   1.358       .  S
C687        C688   1.407       .  A
C687        C692   1.397       .  A
C687        F694   1.358       .  S
C688        C689   1.399       .  A
C689        C690   1.393       .  A
C689        F696   1.359       .  S
C690        C691   1.413       .  A
C690        F695   1.358       .  S
C691        C692   1.406       .  A
C692        F693   1.356       .  S
C697        C698   1.403       .  A
C697        C702   1.394       .  A
C697        F704   1.348       .  S
C698        C699   1.410       .  A
C699        C700   1.406       .  A
C699        F706   1.358       .  S
C700        C701   1.409       .  A
C700        F705   1.357       .  S
C701        C702   1.407       .  A
C702        F703   1.358       .  S
C707        C708   1.408       .  A
C707        C712   1.401       .  A
C707        F714   1.358       .  S
C708        C709   1.411       .  A
C709        C710   1.402       .  A
C709        F716   1.358       .  S
C710        C711   1.407       .  A
C710        F715   1.357       .  S
C711        C712   1.414       .  A
C712        F713   1.358       .  S
C717        C718   1.409       .  A
C717        C722   1.404       .  A
C717        F724   1.356       .  S
C718        C719   1.400       .  A
C719        C720   1.401       .  A
C719        F726   1.358       .  S
C720        C721   1.417       .  A
C720        F725   1.358       .  S
C721        C722   1.410       .  A
C722        F723   1.358       .  S
C727        C728   1.410       .  A
C727        C732   1.394       .  A
C727        F734   1.358       .  S
C728        C729   1.412       .  A
C729        C730   1.406       .  A
C729        F736   1.357       .  S
C730        C731   1.408       .  A
C730        F735   1.358       .  S
C731        C732   1.406       .  A
C732        F733   1.352       .  S
C737        C738   1.408       .  A
C737        C742   1.405       .  A
C737        F744   1.357       .  S
C738        C739   1.417       .  A
C739        C740   1.400       .  A
C739        F746   1.358       .  S
C740        C741   1.401       .  A
C740        F745   1.358       .  S
C741        C742   1.409       .  A
C742        F743   1.354       .  S
C747        C748   1.409       .  A
C747        C752   1.406       .  A
C747        F754   1.357       .  S
C748        C749   1.419       .  A
C749        C750   1.405       .  A
C749        F756   1.358       .  S
C750        C751   1.398       .  A
C750        F755   1.358       .  S
C751        C752   1.411       .  A
C752        F753   1.358       .  S
C757        C758   1.400       .  A
C757        C762   1.404       .  A
C757        F764   1.357       .  S
C758        C759   1.406       .  A
C759        C760   1.401       .  A
C759        F766   1.358       .  S
C760        C761   1.407       .  A
C760        F765   1.358       .  S
C761        C762   1.414       .  A
C762        F763   1.354       .  S
C767        C768   1.403       .  A
C767        C772   1.400       .  A
C767        F774   1.357       .  S
C768        C769   1.401       .  A
C769        C770   1.397       .  A
C769        F776   1.359       .  S
C770        C771   1.413       .  A
C770        F775   1.355       .  S
C771        C772   1.408       .  A
C772        F773   1.358       .  S
C777        C778   1.416       .  A
C777        C782   1.411       .  A
C777        F784   1.353       .  S
C778        C779   1.410       .  A
C779        C780   1.403       .  A
C779        F786   1.358       .  S
C780        C781   1.407       .  A
C780        F785   1.358       .  S
C781        C782   1.403       .  A
C782        F783   1.357       .  S
C787        C788   1.403       .  A
C787        C792   1.404       .  A
C787        F794   1.358       .  S
C788        C789   1.405       .  A
C789        C790   1.396       .  A
C789        F796   1.354       .  S
C790        C791   1.410       .  A
C790        F795   1.358       .  S
C791        C792   1.416       .  A
C792        F793   1.358       .  S
C797        C798   1.404       .  A
C797        C802   1.396       .  A
C797        F804   1.358       .  S
C798        C799   1.411       .  A
C799        C800   1.406       .  A
C799        F806   1.355       .  S
C800        C801   1.403       .  A
C800        F805   1.357       .  S
C801        C802   1.405       .  A
C802        F803   1.358       .  S
C807        C808   1.402       .  A
C807        C812   1.398       .  A
C807        F814   1.358       .  S
C808        C809   1.405       .  A
C809        C810   1.390       .  A
C809        F816   1.359       .  S
C810        C811   1.406       .  A
C810        F815   1.358       .  S
C811        C812   1.411       .  A
C812        F813   1.357       .  S
C817        C818   1.421       .  A
C817        C822   1.404       .  A
C817        F824   1.358       .  S
C818        C819   1.405       .  A
C819        C820   1.401       .  A
C819        F826   1.357       .  S
C820        C821   1.410       .  A
C820        F825   1.357       .  S
C821        C822   1.397       .  A
C822        F823   1.358       .  S
C827        C828   1.412       .  A
C827        C832   1.393       .  A
C827        F834   1.359       .  S
C828        C829   1.400       .  A
C829        C830   1.404       .  A
C829        F836   1.358       .  S
C830        C831   1.421       .  A
C830        F835   1.357       .  S
C831        C832   1.404       .  A
C832        F833   1.356       .  S
C837        C838   1.397       .  A
C837        C842   1.402       .  A
C837        F844   1.358       .  S
C838        C839   1.406       .  A
C839        C840   1.404       .  A
C839        F846   1.358       .  S
C840        C841   1.409       .  A
C840        F845   1.358       .  S
C841        C842   1.415       .  A
C842        F843   1.349       .  S
C847        C848   1.404       .  A
C847        C852   1.402       .  A
C847        F854   1.357       .  S
C848        C849   1.416       .  A
C849        C850   1.403       .  A
C849        F856   1.358       .  S
C850        C851   1.402       .  A
C850        F855   1.358       .  S
C851        C852   1.410       .  A
C852        F853   1.349       .  S
C857        C858   1.416       .  A
C857        C862   1.403       .  A
C857        F864   1.358       .  S
C858        C859   1.404       .  A
C859        C860   1.399       .  A
C859        F866   1.352       .  S
C860        C861   1.408       .  A
C860        F865   1.358       .  S
C861        C862   1.402       .  A
C862        F863   1.358       .  S
C867        C868   1.418       .  A
C867        C872   1.399       .  A
C867        F874   1.358       .  S
C868        C869   1.408       .  A
C869        C870   1.405       .  A
C869        F876   1.358       .  S
C870        C871   1.409       .  A
C870        F875   1.355       .  S
C871        C872   1.399       .  A
C872        F873   1.358       .  S
C877        C878   1.409       .  A
C877        C882   1.398       .  A
C877        F884   1.359       .  S
C878        C879   1.402       .  A
C879        C880   1.399       .  A
C879        F886   1.358       .  S
C880        C881   1.410       .  A
C880        F885   1.358       .  S
C881        C882   1.403       .  A
C882        F883   1.356       .  S
C887        C888   1.398       .  A
C887        C892   1.393       .  A
C887        F894   1.358       .  S
C888        C889   1.413       .  A
C889        C890   1.405       .  A
C889        F896   1.358       .  S
C890        C891   1.403       .  A
C890        F895   1.358       .  S
C891        C892   1.413       .  A
C892        F893   1.354       .  S
C897        C898   1.412       .  A
C897        C902   1.402       .  A
C897        F904   1.358       .  S
C898        C899   1.405       .  A
C899        C900   1.395       .  A
C899        F906   1.349       .  S
C900        C901   1.405       .  A
C900        F905   1.359       .  S
C901        C902   1.405       .  A
C902        F903   1.358       .  S
C907        C908   1.411       .  A
C907        C912   1.405       .  A
C907        F914   1.359       .  S
C908        C909   1.407       .  A
C909        C910   1.397       .  A
C909        F916   1.354       .  S
C910        C911   1.411       .  A
C910        F915   1.358       .  S
C911        C912   1.412       .  A
C912        F913   1.358       .  S
C917        C918   1.406       .  A
C917        C922   1.399       .  A
C917        F924   1.359       .  S
C918        C919   1.400       .  A
C919        C920   1.401       .  A
C919        F926   1.358       .  S
C920        C921   1.416       .  A
C920        F925   1.358       .  S
C921        C922   1.407       .  A
C922        F923   1.349       .  S
C927        C928   1.413       .  A
C927        C932   1.400       .  A
C927        F934   1.358       .  S
C928        C929   1.400       .  A
C929        C930   1.405       .  A
C929        F936   1.357       .  S
C930        C931   1.416       .  A
C930        F935   1.358       .  S
C931        C932   1.405       .  A
C932        F933   1.358       .  S
C937        C938   1.414       .  A
C937        C942   1.401       .  A
C937        F944   1.358       .  S
C938        C939   1.412       .  A
C939        C940   1.405       .  A
C939        F946   1.358       .  S
C940        C941   1.409       .  A
C940        F945   1.353       .  S
C941        C942   1.407       .  A
C942        F943   1.358       .  S
C947        C948   1.415       .  A
C947        C952   1.402       .  A
C947        F954   1.359       .  S
C948        C949   1.406       .  A
C949        C950   1.405       .  A
C949        F956   1.358       .  S
C950        C951   1.413       .  A
C950        F955   1.356       .  S
C951        C952   1.403       .  A
C952        F953   1.358       .  S
C957        C958   1.405       .  A
C957        C962   1.405       .  A
C957        F964   1.358       .  S
C958        C959   1.403       .  A
C959        C960   1.389       .  A
C959        F966   1.355       .  S
C960        C961   1.408       .  A
C960        F965   1.358       .  S
C961        C962   1.413       .  A
C962        F963   1.358       .  S
C967        C968   1.403       .  A
C967        C972   1.401       .  A
C967        F974   1.358       .  S
C968        C969   1.406       .  A
C969        C970   1.402       .  A
C969        F976   1.358       .  S
C970        C971   1.404       .  A
C970        F975   1.358       .  S
C971        C972   1.409       .  A
C972        F973   1.355       .  S
C977        C978   1.401       .  A
C977        C982   1.402       .  A
C977        F984   1.358       .  S
C978        C979   1.417       .  A
C979        C980   1.406       .  A
C979        F986   1.358       .  S
C980        C981   1.400       .  A
C980        F985   1.357       .  S
C981        C982   1.415       .  A
C982        F983   1.355       .  S
C987        C988   1.419       .  A
C987        C992   1.404       .  A
C987        F994   1.359       .  S
C988        C989   1.402       .  A
C989        C990   1.405       .  A
C989        F996   1.357       .  S
C990        C991   1.415       .  A
C990        F995   1.355       .  S
C991        C992   1.399       .  A
C992        F993   1.358       .  S
C997        C998   1.401       .  A
C997       C1002   1.404       .  A
C997       F1004   1.357       .  S
C998        C999   1.417       .  A
C999       C1000   1.396       .  A
C999       F1006   1.359       .  S
C1000      C1001   1.398       .  A
C1000      F1005   1.358       .  S
C1001      C1002   1.414       .  A
C1002      F1003   1.355       .  S
C1007      C1008   1.404       .  A
C1007      C1012   1.395       .  A
C1007      F1014   1.359       .  S
C1008      C1009   1.414       .  A
C1009      C1010   1.409       .  A
C1009      F1016   1.358       .  S
C1010      C1011   1.403       .  A
C1010      F1015   1.357       .  S
C1011      C1012   1.411       .  A
C1012      F1013   1.358       .  S
C1017      C1018   1.412       .  A
C1017      C1022   1.396       .  A
C1017      F1024   1.358       .  S
C1018      C1019   1.411       .  A
C1019      C1020   1.406       .  A
C1019      F1026   1.357       .  S
C1020      C1021   1.406       .  A
C1020      F1025   1.357       .  S
C1021      C1022   1.406       .  A
C1022      F1023   1.359       .  S
C1027      C1028   1.403       .  A
C1027      C1032   1.396       .  A
C1027      F1034   1.358       .  S
C1028      C1029   1.406       .  A
C1029      C1030   1.398       .  A
C1029      F1036   1.358       .  S
C1030      C1031   1.405       .  A
C1030      F1035   1.355       .  S
C1031      C1032   1.409       .  A
C1032      F1033   1.358       .  S
