geometry optimzed in LAMMPS
_audit_creation_date              2020-11-30 
_audit_creation_method            'lammps2cif' 
_symmetry_space_group_name_H-M    'P1' 
_symmetry_Int_Tables_number       1 
_symmetry_cell_setting            triclinic 
loop_ 
_symmetry_equiv_pos_as_xyz 
  x,y,z 
_cell_length_a                    35.81769891641591 
_cell_length_b                    35.58759023373842 
_cell_length_c                    45.53778419821884 
_cell_angle_alpha                 90.97084445955475 
_cell_angle_beta                  87.8061676261791 
_cell_angle_gamma                 118.40719290035402 
loop_ 
_atom_site_label 
_atom_site_type_symbol 
_atom_site_fract_x 
_atom_site_fract_y 
_atom_site_fract_z 
_atom_site_charge 
O1          O  0.29211644  0.16527725  0.02484045    -0.80380
O2          O  0.42556306  0.18146618  0.11738259    -0.80400
O3          O  0.41474000  0.26395726  0.04208964    -0.80410
O4          O  0.29669458  0.06541513  0.08159125    -0.80350
O5          O  0.42172692  0.21022649  0.06034394    -0.80470
O6          O  0.26334996  0.09343863  0.05738515    -0.80390
O7          O  0.36468912  0.12111902  0.11565237    -0.80380
O8          O  0.35587681  0.18224200  0.03607410    -0.80420
C9          C  0.32849403  0.17159381  0.51746460     1.09310
C10         C  0.40322407  0.14266386  0.12507989     1.09200
C11         C  0.43350303  0.24097372  0.04102259     1.09330
C12         C  0.27204921  0.06260170  0.06119044     1.09210
O13         O  0.23257049  0.13455782  0.10273862    -0.80380
O14         O  0.41488800  0.25212336  0.11253309    -0.80460
O15         O  0.32682580  0.24494794  0.04161037    -0.80390
O16         O  0.30692633  0.12251327  0.13547324    -0.80370
O17         O  0.35896549  0.18815212  0.13898280    -0.80420
O18         O  0.26474133  0.20735631  0.06490432    -0.80390
O19         O  0.26659909  0.10290350  0.12104149    -0.80350
O20         O  0.37257425  0.27272552  0.09566558    -0.80420
Co21       Co  0.26766665  0.15291583  0.06523996     1.51530
Co22       Co  0.38370049  0.19277333  0.09980442     1.51690
Co23       Co  0.36408538  0.22762528  0.06463399     1.51570
Co24       Co  0.31741815  0.12495915  0.09112151     1.51470
O25         O  0.32498307  0.18397742  0.08907706    -1.42310
C26         C  0.23430285  0.10988086  0.12179267     1.09240
C27         C  0.39870862  0.27634641  0.11512913     1.09330
C28         C  0.28741437  0.23446309  0.04518026     1.09270
C29         C  0.32921582  0.15593723  0.15083993     1.09240
O30         O  0.31641210  0.14924096  0.27883778    -0.80380
O31         O  0.42152581  0.15655388  0.36318845    -0.80400
O32         O  0.41219724  0.22867580  0.29998594    -0.80410
O33         O  0.30501365  0.05933611  0.31493129    -0.80350
O34         O  0.45702682  0.22622321  0.33067545    -0.80470
O35         O  0.25895030  0.08162930  0.30390401    -0.80390
O36         O  0.37769898  0.09325585  0.34909730    -0.80380
O37         O  0.37573517  0.20908935  0.28744955    -0.80420
C38         C  0.35120477  0.17922834  0.26995279     1.09310
C39         C  0.40578465  0.11690600  0.36671720     1.09200
C40         C  0.45083929  0.23574976  0.30525556     1.09330
C41         C  0.27740829  0.05893429  0.29766641     1.09210
O42         O  0.25950948  0.13524302  0.35677164    -0.80380
O43         O  0.40169609  0.23050880  0.36796934    -0.80460
O44         O  0.31524897  0.21882595  0.30479874    -0.80390
O45         O  0.33620226  0.12197900  0.39059035    -0.80370
O46         O  0.38370519  0.19112212  0.37871260    -0.80420
O47         O  0.25245399  0.15998492  0.30017507    -0.80390
O48         O  0.26080955  0.07532221  0.36407157    -0.80350
O49         O  0.38488154  0.26999917  0.34032674    -0.80420
Co50       Co  0.28989988  0.14367130  0.31725497     1.51530
Co51       Co  0.39901250  0.18428800  0.33663810     1.51690
Co52       Co  0.35803683  0.20877684  0.33043039     1.51570
Co53       Co  0.32081122  0.08973462  0.35370549     1.51470
O54         O  0.33802003  0.14445387  0.33249758    -1.42310
C55         C  0.24731901  0.10120157  0.37157103     1.09240
C56         C  0.40129079  0.26661847  0.36388523     1.09330
C57         C  0.27725349  0.19931010  0.29417271     1.09270
C58         C  0.35887428  0.16132075  0.39699065     1.09240
O59         O  0.24574841  0.29799410  0.18039490    -0.80380
O60         O  0.15468000  0.32843061  0.11338840    -0.80400
O61         O  0.13763635  0.23702304  0.15507913    -0.80410
O62         O  0.24206932  0.40704604  0.13041250    -0.80350
O63         O  0.09893121  0.26026243  0.13513945    -0.80470
O64         O  0.27388606  0.36968312  0.14277836    -0.80390
O65         O  0.19820792  0.39573770  0.11935378    -0.80380
O66         O  0.18539678  0.26170985  0.20628535    -0.80420
C67         C  0.22381384  0.27044134  0.20026423     1.09310
C68         C  0.17497120  0.36486301  0.10264413     1.09200
C69         C  0.11314963  0.23391571  0.13462123     1.09330
C70         C  0.27026254  0.39467303  0.12520121     1.09210
O71         O  0.25221060  0.41491947  0.19421654    -0.80380
O72         O  0.09330835  0.29981196  0.19183157    -0.80460
O73         O  0.15938430  0.32503009  0.21742308    -0.80390
O74         O  0.14642353  0.39606491  0.14492294    -0.80370
O75         O  0.08827834  0.33438395  0.13814321    -0.80420
O76         O  0.22536178  0.34144190  0.22188908    -0.80390
O77         O  0.21619434  0.44392955  0.17463685    -0.80350
O78         O  0.09771347  0.24416598  0.20927826    -0.80420
Co79       Co  0.24544647  0.35401643  0.18203270     1.51530
Co80       Co  0.12937062  0.31890938  0.15215822     1.51690
Co81       Co  0.14808528  0.28125597  0.18669207     1.51570
Co82       Co  0.19485031  0.38589642  0.16329143     1.51470
O83         O  0.18627549  0.32575431  0.16171382    -1.42310
C84         C  0.24154196  0.44523830  0.19375561     1.09240
C85         C  0.07935784  0.26750735  0.20984882     1.09330
C86         C  0.19316677  0.34338016  0.23088941     1.09270
C87         C  0.10804004  0.37492586  0.13524671     1.09240
O88         O  0.23439355  0.34796526  0.45911718    -0.80380
O89         O  0.14029684  0.32658021  0.35881471    -0.80400
O90         O  0.13848591  0.24909709  0.39688188    -0.80410
O91         O  0.23985237  0.43255044  0.38933744    -0.80350
O92         O  0.08553440  0.26114611  0.38651756    -0.80470
O93         O  0.25586843  0.38494474  0.40226355    -0.80390
O94         O  0.17289944  0.39577421  0.36017058    -0.80380
O95         O  0.20715206  0.28830289  0.43506357    -0.80420
C96         C  0.22962627  0.31058388  0.45593965     1.09310
C97         C  0.16247625  0.36172158  0.34684446     1.09200
C98         C  0.10594036  0.24006209  0.38195085     1.09330
C99         C  0.26175284  0.41398673  0.38429616     1.09210
O100        O  0.25099697  0.43110769  0.45310093    -0.80380
O101        O  0.08325948  0.31911040  0.43471551    -0.80460
O102        O  0.15459539  0.30523338  0.47580219    -0.80390
O103        O  0.11525093  0.39068509  0.40363513    -0.80370
O104        O  0.07262820  0.33433793  0.37808161    -0.80420
O105        O  0.16889821  0.37013894  0.46438001    -0.80390
O106        O  0.19520214  0.43875852  0.44265858    -0.80350
O107        O  0.08572534  0.26096834  0.44335242    -0.80420
Co108      Co  0.21279420  0.37910679  0.43398410     1.51530
Co109      Co  0.11388739  0.32480587  0.39648650     1.51690
Co110      Co  0.14821425  0.28017536  0.43560192     1.51570
Co111      Co  0.17837845  0.40522322  0.40203031     1.51470
O112        O  0.16760178  0.33772765  0.41247107    -1.42310
C113        C  0.22967034  0.45090957  0.45755065     1.09240
C114        C  0.06935222  0.28500795  0.44917827     1.09330
C115        C  0.15757785  0.34099710  0.98287559     1.09270
C116        C  0.08931026  0.37454245  0.38195973     1.09240
O117        O  0.44325499  0.40177999  0.47902395    -0.80380
O118        O  0.02631921  0.02269291  0.05754733    -0.80400
O119        O  0.04583179  0.44047582  0.51771027    -0.80410
O120        O  0.43520670  0.50880234  0.03232562    -0.80350
O121        O  0.07733893  0.49930249  0.04290450    -0.80470
O122        O  0.40963307  0.44429951  0.01388156    -0.80390
O123        O  0.47280242  0.03312947  0.04644307    -0.80380
O124        O  0.50711107  0.42199867  0.45951122    -0.80420
C125        C  0.46704772  0.39536791  0.46035766     1.09310
C126        C  0.99419235  0.02612347  0.06515855     1.09200
C127        C  0.06381450  0.45915452  0.04134800     1.09330
C128        C  0.40648772  0.46874014  0.03294624     1.09210
O129        O  0.44581590  0.01544222  0.46847327    -0.80380
O130        O  0.10149740  0.04716910  0.48372050    -0.80460
O131        O  0.04034451  0.51176529  0.45261405    -0.80390
O132        O  0.03763367  0.09119726  0.02797362    -0.80370
O133        O  0.09634364  0.08655989  0.03586163    -0.80420
O134        O  0.47579217  0.46924222  0.44037559    -0.80390
O135        O  0.47088846  0.07583541  0.49323114    -0.80350
O136        O  0.09670591  0.98642310  0.46610287    -0.80420
Co137      Co  0.44728848  0.45958905  0.47848010     1.51530
Co138      Co  0.05671114  0.03305778  0.01980792     1.51690
Co139      Co  0.04271965  0.47614068  0.48427690     1.51570
Co140      Co  0.49107339  0.03729788  0.00459784     1.51470
O141        O  0.00087388  0.98550584  0.50554066    -1.42310
C142        C  0.45270867  0.05447173  0.47072503     1.09240
C143        C  0.11663096  0.02735169  0.46657355     1.09330
C144        C  0.51349439  0.49426771  0.43361998     1.09270
C145        C  0.07511105  0.10669689  0.03945446     1.09240
O146        O  0.42831085  0.40447161  0.23346895    -0.80380
O147        O  0.00393432  0.97700788  0.29747917    -0.80400
O148        O  0.04153993  0.45141039  0.26431548    -0.80410
O149        O  0.41915854  0.51663881  0.28226821    -0.80350
O150        O  0.08677232  0.51124497  0.28496566    -0.80470
O151        O  0.39603066  0.44853317  0.27091176    -0.80390
O152        O  0.48172702  0.02103564  0.30918707    -0.80380
O153        O  0.49066610  0.42384741  0.21088809    -0.80420
C154        C  0.45095448  0.39710860  0.21427734     1.09310
C155        C  0.99330449  0.99461176  0.31652186     1.09200
C156        C  0.07051879  0.47061983  0.28374594     1.09330
C157        C  0.39446703  0.47666097  0.28795635     1.09210
O158        O  0.41680862  0.01074384  0.22066930    -0.80380
O159        O  0.08256015  0.04895277  0.23190023    -0.80460
O160        O  0.01863227  0.51073968  0.19759227    -0.80390
O161        O  0.00246358  0.09463706  0.28575899    -0.80370
O162        O  0.05289348  0.07365631  0.28915561    -0.80420
O163        O  0.45052096  0.46675020  0.19090955    -0.80390
O164        O  0.47850979  0.06523806  0.22940819    -0.80350
O165        O  0.07975358  0.99131704  0.21122629    -0.80420
Co166      Co  0.42534589  0.45887963  0.23066221     1.51530
Co167      Co  0.04015065  0.01422807  0.26641385     1.51690
Co168      Co  0.02694717  0.48165519  0.23054776     1.51570
Co169      Co  0.48183094  0.04098799  0.26824273     1.51470
O170        O  0.98163759  0.99191997  0.25006398    -1.42310
C171        C  0.44503572  0.04934647  0.21472804     1.09240
C172        C  0.09899608  0.03197846  0.21348214     1.09330
C173        C  0.48732325  0.49262376  0.18156445     1.09270
C174        C  0.03773894  0.10046987  0.29564158     1.09240
C175        C  0.01202372  0.45928339  0.38834743    -0.12510
C176        C  0.02531697  0.49801271  0.40340054     0.04500
C177        C  0.53760138  0.03629023  0.38855526    -0.07800
C178        C  0.52958610  0.03334303  0.35900422    -0.08540
C179        C  0.00607540  0.99354396  0.34569325    -0.03090
C180        C  0.00075773  0.45593040  0.35925313     0.03730
N181        N  0.98119599  0.41435886  0.34536550     0.66230
H182        H  0.00494303  0.43058895  0.40039884     0.15130
H183        H  0.53965652  0.06216459  0.34669735     0.14840
N184        N  0.55584193  0.07733863  0.40302747     0.73940
O185        O  0.98562885  0.38426571  0.35597263    -0.39510
O186        O  0.95557575  0.40578556  0.32490046    -0.39460
O187        O  0.58168250  0.11062733  0.38925152    -0.40160
O188        O  0.54441954  0.08120553  0.42891749    -0.40230
C189        C  0.97199434  0.47636500  0.10310347    -0.12510
C190        C  0.98046444  0.01733250  0.09491596     0.04500
C191        C  0.49351800  0.05101743  0.11532359    -0.07800
C192        C  0.49863368  0.04256720  0.14395656    -0.08540
C193        C  0.99264758  0.50243460  0.15140128    -0.03090
C194        C  0.98226550  0.46969592  0.13067297     0.03730
N195        N  0.98742075  0.43265734  0.13608123     0.66230
H196        H  0.96450714  0.45186621  0.08642518     0.15130
H197        H  0.50657557  0.06690854  0.16073931     0.14840
N198        N  0.50249509  0.09350427  0.10741620     0.73940
O199        O  0.97366197  0.40196668  0.11810347    -0.39510
O200        O  0.01412813  0.43493900  0.15424306    -0.39460
O201        O  0.49523187  0.10134388  0.08203786    -0.40160
O202        O  0.01416100  0.12264653  0.12659371    -0.40230
C203        C  0.06246036  0.37955566  0.33302678    -0.12510
C204        C  0.08372685  0.40077193  0.35835794     0.04500
C205        C  0.10301719  0.44575453  0.35814363    -0.07800
C206        C  0.09957599  0.46779892  0.33351033    -0.08540
C207        C  0.07758289  0.44621723  0.30818931    -0.03090
C208        C  0.05923817  0.40121440  0.30852263     0.03730
N209        N  0.04022053  0.37626434  0.28334906     0.66230
H210        H  0.04914112  0.34524603  0.33140334     0.15130
H211        H  0.11327434  0.50200342  0.33448669     0.14840
N212        N  0.12681043  0.46949196  0.38252863     0.73940
O213        O  0.05422723  0.35166231  0.27404769    -0.39510
O214        O  0.00308677  0.36824846  0.27722486    -0.39460
O215        O  0.16681673  0.48921500  0.38014166    -0.40160
O216        O  0.10874034  0.96339173  0.40766756    -0.40230
C217        C  0.05082713  0.16794962  0.36476147    -0.12510
C218        C  0.09066506  0.20365646  0.36007473     0.04500
C219        C  0.11398116  0.20417827  0.33402516    -0.07800
C220        C  0.09761357  0.16960308  0.31398808    -0.08540
C221        C  0.05711824  0.13467480  0.31847390    -0.03090
C222        C  0.03347679  0.13416427  0.34443229     0.03730
N223        N  0.99260531  0.09859764  0.35153783     0.66230
H224        H  0.03224926  0.16667017  0.38404927     0.15130
H225        H  0.11548862  0.17154627  0.29380306     0.14840
N226        N  0.15049190  0.24230577  0.32480966     0.73940
O227        O  0.98555805  0.08158424  0.37659230    -0.39510
O228        O  0.46203665  0.08752181  0.33466634    -0.39460
O229        O  0.18569944  0.24239202  0.32177607    -0.40160
O230        O  0.14443170  0.26865651  0.31032195    -0.40230
C231        C  0.32271306  0.46149570  0.31031521    -0.12510
C232        C  0.36138803  0.46157413  0.31354652     0.04500
C233        C  0.36543411  0.44382275  0.34032829    -0.07800
C234        C  0.33055341  0.42346936  0.36058085    -0.08540
C235        C  0.29403401  0.42807857  0.35868682    -0.03090
C236        C  0.29110468  0.44909408  0.33314823     0.03730
N237        N  0.25687938  0.45867026  0.32964506     0.66230
H238        H  0.31759261  0.47242487  0.29016181     0.15130
H239        H  0.33473954  0.40990327  0.38052728     0.14840
N240        N  0.40597419  0.45519376  0.35132969     0.73940
O241        O  0.25220239  0.48378047  0.34744720    -0.39510
O242        O  0.24016437  0.45279557  0.30497555    -0.39460
O243        O  0.42821553  0.99384591  0.35838453    -0.40160
O244        O  0.41023196  0.42731949  0.36542462    -0.40230
C245        C  0.21834303  0.35501467  0.27953771    -0.12510
C246        C  0.19404686  0.36184120  0.25900128     0.04500
C247        C  0.16616805  0.37804216  0.26748951    -0.07800
C248        C  0.15687409  0.37798020  0.29726961    -0.08540
C249        C  0.17579335  0.36368090  0.31732522    -0.03090
C250        C  0.20892464  0.35472203  0.30910156     0.03730
N251        N  0.23127647  0.34270482  0.32962369     0.66230
H252        H  0.24125032  0.34466366  0.27260450     0.15130
H253        H  0.13440876  0.38843900  0.30496544     0.14840
N254        N  0.14825633  0.39546828  0.24713953     0.73940
O255        O  0.26705783  0.34603346  0.32225642    -0.39510
O256        O  0.21440349  0.32542102  0.35397376    -0.39460
O257        O  0.15253903  0.39284634  0.21970388    -0.40160
O258        O  0.13233831  0.41842401  0.25666888    -0.40230
C259        C  0.18860097  0.39091624  0.02322738    -0.12510
C260        C  0.15529348  0.35215221  0.01330179     0.04500
C261        C  0.12432293  0.32433541  0.03332493    -0.07800
C262        C  0.12807652  0.33596414  0.06245435    -0.08540
C263        C  0.16580285  0.36949159  0.07266624    -0.03090
C264        C  0.19493761  0.39959264  0.05308345     0.03730
N265        N  0.23340070  0.43474547  0.06283287     0.66230
H266        H  0.21336328  0.41107366  0.00810739     0.15130
H267        H  0.10424181  0.31446607  0.07783605     0.14840
N268        N  0.09168747  0.28263731  0.02575174     0.73940
O269        O  0.26858830  0.44189916  0.05105150    -0.39510
O270        O  0.23226630  0.45985727  0.08232209    -0.39460
O271        O  0.10185986  0.25572419  0.01503015    -0.40160
O272        O  0.05586772  0.26878799  0.03868681    -0.40230
C273        C  0.09163821  0.45949859  0.09233298    -0.12510
C274        C  0.07079743  0.43623670  0.06724543     0.04500
C275        C  0.05616021  0.39182573  0.06860174    -0.07800
C276        C  0.06621548  0.37298403  0.09199754    -0.08540
C277        C  0.09038975  0.39660816  0.11557712    -0.03090
C278        C  0.10001008  0.44027816  0.11684268     0.03730
N279        N  0.11256776  0.46435097  0.14361764     0.66230
H280        H  0.10076383  0.99316170  0.09321236     0.15130
H281        H  0.05526343  0.33891910  0.09131501     0.14840
N282        N  0.03108889  0.36436957  0.04633409     0.73940
O283        O  0.10820748  0.99738121  0.14613762    -0.39510
O284        O  0.11817721  0.44845470  0.16651950    -0.39460
O285        O  0.03973542  0.33563174  0.03753699    -0.40160
O286        O  0.99437320  0.35987199  0.04302034    -0.40230
C287        C  0.12707938  0.18026212  0.10562550    -0.12510
C288        C  0.10354620  0.20261442  0.10920902     0.04500
C289        C  0.07316324  0.19573408  0.08734795    -0.07680
C290        C  0.06973616  0.16944410  0.06271089    -0.08540
C291        C  0.09026072  0.14426332  0.06069419    -0.03090
C292        C  0.11964852  0.15050431  0.08265137     0.03730
N293        N  0.14065044  0.12505926  0.08292585     0.66230
H294        H  0.15056215  0.18467682  0.12151410     0.15130
H295        H  0.04700448  0.16503746  0.04646506     0.14840
N296        N  0.04066608  0.20853075  0.09161278     0.73940
O297        O  0.17351574  0.13560162  0.06679970    -0.39510
O298        O  0.12143655  0.08789773  0.09371284    -0.39460
O299        O  0.04994612  0.24707626  0.09524588    -0.40160
O300        O  0.00254844  0.18211452  0.08671823    -0.40230
C301        C  0.37131798  0.47129399  0.08296345    -0.12510
C302        C  0.37079647  0.44939217  0.05663005     0.04500
C303        C  0.33744181  0.40647126  0.05461155    -0.07800
C304        C  0.30410563  0.38937936  0.07634084    -0.08540
C305        C  0.30276514  0.41348153  0.10056554    -0.03090
C306        C  0.33781804  0.45343537  0.10476066     0.03730
N307        N  0.34180880  0.47191676  0.13342106     0.66230
H308        H  0.39904978  0.50090617  0.08723342     0.15130
H309        H  0.27951717  0.35676974  0.07490573     0.14840
N310        N  0.33950434  0.37814173  0.03266222     0.73940
O311        O  0.36000180  0.46144380  0.15217066    -0.39510
O312        O  0.31384972  0.48161356  0.14281416    -0.39460
O313        O  0.35272895  0.35241424  0.03947024    -0.40160
O314        O  0.33508959  0.38338356  0.00590809    -0.40230
C315        C  0.40733521  0.04534208  0.42892505    -0.12510
C316        C  0.44179834  0.07350972  0.44530495     0.04500
C317        C  0.46587874  0.11625632  0.43473720    -0.07800
C318        C  0.45148635  0.12908119  0.41007178    -0.08540
C319        C  0.41661427  0.10046048  0.39374815    -0.03090
C320        C  0.39289394  0.05835875  0.40470206     0.03730
N321        N  0.35254520  0.02873401  0.39350767     0.66230
H322        H  0.39044335  0.01227377  0.43580076     0.15130
H323        H  0.46898252  0.16182682  0.40257301     0.14840
N324        N  0.50686743  0.14605117  0.44575536     0.73940
O325        O  0.33946308  0.48967024  0.39793118    -0.39510
O326        O  0.32535237  0.04071805  0.38891729    -0.39460
O327        O  0.02662225  0.13464665  0.46271613    -0.40160
O328        O  0.52701860  0.18255562  0.43424346    -0.40230
C329        C  0.22630866  0.08728756  0.42518576    -0.12510
C330        C  0.21455628  0.08871295  0.39624447     0.04500
C331        C  0.17120023  0.07408669  0.39113314    -0.07800
C332        C  0.14080465  0.05586124  0.41475386    -0.08540
C333        C  0.15193539  0.05210966  0.44361013    -0.03090
C334        C  0.19603051  0.07094401  0.44903657     0.03730
N335        N  0.21090764  0.07534203  0.47840790     0.66230
H336        H  0.25973443  0.09969900  0.42923438     0.15130
H337        H  0.10776736  0.04234741  0.41022195     0.14840
N338        N  0.15725577  0.07506350  0.36193662     0.73940
O339        O  0.24897861  0.08459139  0.48257338    -0.39510
O340        O  0.18879178  0.07786894  0.49977632    -0.39460
O341        O  0.17772460  0.07299155  0.33933017    -0.40160
O342        O  0.12338298  0.07670735  0.35847547    -0.40230
C343        C  0.47161009  0.34189007  0.42431246    -0.12510
C344        C  0.44797635  0.36104733  0.43642113     0.04500
C345        C  0.40827844  0.34954302  0.42318632    -0.07800
C346        C  0.39482465  0.32105757  0.39867062    -0.08540
C347        C  0.41816335  0.30100776  0.38761680    -0.03090
C348        C  0.45644123  0.31115797  0.40157032     0.03730
N349        N  0.48152244  0.29162491  0.39195464     0.66230
H350        H  0.50282665  0.35117946  0.43204835     0.15130
H351        H  0.36506566  0.31354274  0.38874582     0.14840
N352        N  0.38116278  0.36664932  0.43373613     0.73940
O353        O  0.99128804  0.29179955  0.36509299    -0.39510
O354        O  0.49476381  0.27494616  0.41030163    -0.39460
O355        O  0.39499944  0.40649994  0.43467890    -0.40160
O356        O  0.34166452  0.34232452  0.43676660    -0.40230
C357        C  0.29717273  0.51822709  0.25957380    -0.12510
C358        C  0.26811393  0.03214557  0.26968404     0.04500
C359        C  0.23185980  0.02004379  0.25261627    -0.07800
C360        C  0.22433735  0.99227372  0.22816674    -0.08540
C361        C  0.25301589  0.47749882  0.21868614    -0.03090
C362        C  0.28948103  0.49046971  0.23524501     0.03730
N363        N  0.31999003  0.47705920  0.22679067     0.66230
H364        H  0.32711781  0.53020105  0.27030447     0.15130
H365        H  0.19536246  0.98155589  0.21652959     0.14840
N366        N  0.20275101  0.03615493  0.25921805     0.73940
O367        O  0.33975815  0.48952124  0.20245860    -0.39510
O368        O  0.31907322  0.44523963  0.23928485    -0.39460
O369        O  0.21479047  0.07544090  0.25582436    -0.40160
O370        O  0.16357737  0.01053957  0.26193737    -0.40230
C371        C  0.48768127  0.27154618  0.25622944    -0.12510
C372        C  0.48480405  0.24692838  0.28100503     0.04500
C373        C  0.01360242  0.23021597  0.28166326    -0.07800
C374        C  0.04269656  0.23654859  0.25828104    -0.08540
C375        C  0.04592753  0.26101513  0.23352921    -0.03090
C376        C  0.01931110  0.28072689  0.23342863     0.03730
N377        N  0.02600970  0.31253321  0.21188227     0.66230
H378        H  0.46656159  0.28533727  0.25512627     0.15130
H379        H  0.06341593  0.22232375  0.25984970     0.14840
N380        N  0.01278002  0.20498895  0.30578096     0.73940
O381        O  0.52756018  0.30498091  0.18496264    -0.39510
O382        O  0.03307708  0.34943779  0.21968150    -0.39460
O383        O  0.98502417  0.16620367  0.30709531    -0.40160
O384        O  0.03254962  0.22353328  0.32842236    -0.40230
C385        C  0.24200207  0.19396149  0.24747914    -0.12510
C386        C  0.26492981  0.22014089  0.27074441     0.04500
C387        C  0.27987312  0.26476003  0.26819567    -0.07800
C388        C  0.26866975  0.28078564  0.24359054    -0.08540
C389        C  0.24401779  0.25383282  0.22097197    -0.03090
C390        C  0.23276933  0.21018614  0.22238180     0.03730
N391        N  0.21631833  0.18242786  0.19760834     0.66230
H392        H  0.23273185  0.16023806  0.24815359     0.15130
H393        H  0.27805698  0.31449800  0.24261875     0.14840
N394        N  0.30497515  0.29404027  0.29050847     0.73940
O395        O  0.22400009  0.15142668  0.19479891    -0.39510
O396        O  0.20100743  0.19224289  0.17636596    -0.39460
O397        O  0.33154320  0.33202663  0.28376729    -0.40160
O398        O  0.29774768  0.28356420  0.31730009    -0.40230
C399        C  0.33536797  0.19921595  0.46855995    -0.12510
C400        C  0.34040344  0.17118224  0.48709817     0.04500
C401        C  0.35723046  0.14480769  0.47635257    -0.07800
C402        C  0.36712057  0.14656231  0.44654479    -0.08540
C403        C  0.35794050  0.17126324  0.42753683    -0.03090
C404        C  0.34137040  0.19784192  0.43830058     0.03730
N405        N  0.32690276  0.22016406  0.41945655     0.66230
H406        H  0.32430952  0.22053572  0.47774364     0.15130
H407        H  0.37877379  0.12565058  0.43757833     0.14840
N408        N  0.36211256  0.11458920  0.99442649     0.73940
O409        O  0.32008885  0.24952629  0.42987970    -0.39510
O410        O  0.31403316  0.20626522  0.39413331    -0.39460
O411        O  0.34846546  0.10790114  0.02073075    -0.40160
O412        O  0.38016147  0.09398300  0.98407673    -0.40230
C413        C  0.33836229  0.13144201  0.19729704    -0.12510
C414        C  0.32659105  0.15798616  0.18246556     0.04500
C415        C  0.33152949  0.19638401  0.19567351    -0.07800
C416        C  0.34829751  0.20690504  0.22360884    -0.08540
C417        C  0.35888172  0.17969857  0.23872838    -0.03090
C418        C  0.35516975  0.14205350  0.22525133     0.03730
N419        N  0.36767248  0.11416368  0.23972945     0.66230
H420        H  0.33733022  0.10389134  0.18604063     0.15130
H421        H  0.34958091  0.23463514  0.23478900     0.14840
N422        N  0.32065349  0.22529122  0.18081785     0.73940
O423        O  0.36713578  0.08277708  0.22607447    -0.39510
O424        O  0.38290928  0.12259578  0.26502010    -0.39460
O425        O  0.29777149  0.21344811  0.15858936    -0.40160
O426        O  0.33164621  0.26215542  0.19104045    -0.40230
C427        C  0.42002004  0.05724763  0.16388244    -0.12510
C428        C  0.43848230  0.07610593  0.19087161     0.04500
C429        C  0.45073733  0.12050831  0.19389041    -0.07800
C430        C  0.44039153  0.14227511  0.17216458    -0.08540
C431        C  0.41911993  0.12174991  0.14654719    -0.03090
C432        C  0.41005667  0.07932988  0.14220721     0.03730
N433        N  0.39309228  0.06016318  0.11454330     0.66230
H434        H  0.41619992  0.02617712  0.15905882     0.15130
H435        H  0.44842756  0.17539681  0.17564578     0.14840
N436        N  0.47240608  0.14406359  0.21920611     0.73940
O437        O  0.41680362  0.07449235  0.09189497    -0.39510
O438        O  0.35387424  0.04545275  0.11115095    -0.39460
O439        O  0.50831147  0.14787011  0.22465884    -0.40160
O440        O  0.46099520  0.16915753  0.23150327    -0.40230
C441        C  0.16768068  0.04429698  0.18901561    -0.12510
C442        C  0.13684770  0.05785737  0.19327609     0.04500
C443        C  0.13839071  0.08923468  0.17376232    -0.07800
C444        C  0.16936627  0.10464843  0.15031947    -0.08540
C445        C  0.20017217  0.09080293  0.14602341    -0.03090
C446        C  0.19826260  0.05944227  0.16562059     0.03730
N447        N  0.22439768  0.03953556  0.16047891     0.66230
H448        H  0.16548886  0.01886086  0.20261086     0.15130
H449        H  0.17072064  0.12943555  0.13627270     0.14840
N450        N  0.10898168  0.10583802  0.17722770     0.73940
O451        O  0.25520460  0.54824813  0.17668584    -0.39510
O452        O  0.21867583  0.01572283  0.13838737    -0.39460
O453        O  0.10430423  0.12034271  0.20177673    -0.40160
O454        O  0.09366284  0.11312455  0.15488236    -0.40230
C455        C  0.39399787  0.33417651  0.14527084    -0.12510
C456        C  0.40980531  0.30532660  0.14169007     0.04500
C457        C  0.43287721  0.30156329  0.16542697    -0.07800
C458        C  0.44280716  0.32943870  0.18985924    -0.08540
C459        C  0.43041053  0.36120685  0.19210784    -0.03090
C460        C  0.40346848  0.36157536  0.16997306     0.03730
N461        N  0.38672319  0.39078063  0.17084238     0.66230
H462        H  0.37413855  0.33570104  0.12847349     0.15130
H463        H  0.46026953  0.32615790  0.20744391     0.14840
N464        N  0.44497203  0.26848346  0.16596920     0.73940
O465        O  0.38234241  0.40525437  0.14689194    -0.39510
O466        O  0.36810314  0.39463906  0.19388010    -0.39460
O467        O  0.47169797  0.26823849  0.14715157    -0.40160
O468        O  0.43516056  0.24447969  0.18817874    -0.40230
C469        C  0.20961701  0.48770696  0.49864711    -0.12510
C470        C  0.24121877  0.48184323  0.48330062     0.04500
C471        C  0.28129578  0.49826406  0.49662642    -0.07800
C472        C  0.28870205  0.01997481  0.02377231    -0.08540
C473        C  0.25803381  0.02810049  0.03811452    -0.03090
C474        C  0.21732149  0.00999566  0.02590648     0.03730
N475        N  0.18292787  0.01265851  0.04116951     0.66230
H476        H  0.17808472  0.47321278  0.48992264     0.15130
H477        H  0.31967104  0.03224321  0.03314934     0.14840
N478        N  0.31574308  0.49512465  0.48208643     0.73940
O479        O  0.14969635  0.00363213  0.02774259    -0.39510
O480        O  0.18338923  0.01919696  0.06852232    -0.39460
O481        O  0.32302052  0.00384489  0.45519671    -0.40160
O482        O  0.34259983  0.49045566  0.49659704    -0.40230
C483        C  0.47993305  0.28492974  0.99888215    -0.12510
C484        C  0.46476825  0.24709014  0.01548150     0.04500
C485        C  0.48159152  0.21887347  0.00735965    -0.07800
C486        C  0.01473209  0.23208161  0.48541371    -0.08540
C487        C  0.03317439  0.27241811  0.47176244    -0.03090
C488        C  0.01726587  0.30041418  0.98071707     0.03730
N489        N  0.04247797  0.34599624  0.97686397     0.66230
H490        H  0.46641223  0.30590283  0.00344617     0.15130
H491        H  0.02912704  0.21202502  0.48103710     0.14840
N492        N  0.46751462  0.17768160  0.52095555     0.73940
O493        O  0.02547744  0.36920511  0.98238594    -0.39510
O494        O  0.08237965  0.36340197  0.47813003    -0.39460
O495        O  0.43019061  0.15620240  0.53111044    -0.40160
O496        O  0.48981716  0.15906573  0.01797863    -0.40230
C497        C  0.26285414  0.28590983  0.03005939    -0.12510
C498        C  0.26743500  0.25020120  0.02343131     0.04500
C499        C  0.25389544  0.23089624  0.49557101    -0.07800
C500        C  0.24548513  0.25292000  0.47335645    -0.08540
C501        C  0.24415397  0.29110941  0.47928101    -0.03090
C502        C  0.24963608  0.30535369  0.00904918     0.03730
N503        N  0.23754167  0.33605542  0.01964289     0.66230
H504        H  0.26854011  0.29798984  0.05222852     0.15130
H505        H  0.23643023  0.23826987  0.45195353     0.14840
N506        N  0.24102931  0.18653467  0.49128750     0.73940
O507        O  0.21415021  0.32733234  0.04264854    -0.39510
O508        O  0.25839004  0.37439062  0.51140232    -0.39460
O509        O  0.21862464  0.16063064  0.51125543    -0.40160
O510        O  0.24134951  0.17232722  0.46573701    -0.40230
O511        O  0.29213541  0.16528704  0.52484737    -0.80380
O512        O  0.42555412  0.18142728  0.61739253    -0.80400
O513        O  0.41476500  0.26395610  0.54212302    -0.80410
O514        O  0.29668837  0.06539719  0.58158496    -0.80350
O515        O  0.42173501  0.21020823  0.56036311    -0.80470
O516        O  0.26335442  0.09343697  0.55738259    -0.80390
O517        O  0.36467444  0.12108493  0.61566121    -0.80380
O518        O  0.35589705  0.18225094  0.53607886    -0.80420
C519        C  0.32847567  0.17158483  0.01745861     1.09310
C520        C  0.40320899  0.14262761  0.62509021     1.09200
C521        C  0.43352071  0.24096580  0.54104908     1.09330
C522        C  0.27204746  0.06259456  0.56118374     1.09210
O523        O  0.23257223  0.13455247  0.60273916    -0.80380
O524        O  0.41490109  0.25208626  0.61256714    -0.80460
O525        O  0.32685311  0.24495998  0.54163332    -0.80390
O526        O  0.30690430  0.12247578  0.63547127    -0.80370
O527        O  0.35895189  0.18810781  0.63899770    -0.80420
O528        O  0.26475952  0.20736163  0.56491416    -0.80390
O529        O  0.26658507  0.10287733  0.62103476    -0.80350
O530        O  0.37259084  0.27269534  0.59570388    -0.80420
Co531      Co  0.26767708  0.15291619  0.56524411     1.51530
Co532      Co  0.38370055  0.19274488  0.59981984     1.51690
Co533      Co  0.36410164  0.22761612  0.56465512     1.51570
Co534      Co  0.31741581  0.12493836  0.59112276     1.51470
O535        O  0.32498858  0.18396022  0.58908735    -1.42310
C536        C  0.23429452  0.10986427  0.62178839     1.09240
C537        C  0.39871516  0.27630069  0.61517224     1.09330
C538        C  0.28744009  0.23447512  0.54519562     1.09270
C539        C  0.32918874  0.15589250  0.65084500     1.09240
O540        O  0.31637177  0.14924157  0.77885381    -0.80380
O541        O  0.42153479  0.15657374  0.86318362    -0.80400
O542        O  0.41217303  0.22868154  0.79997482    -0.80410
O543        O  0.30500699  0.05934526  0.81494437    -0.80350
O544        O  0.45701809  0.22623684  0.83065384    -0.80470
O545        O  0.25893548  0.08163082  0.80392119    -0.80390
O546        O  0.37770147  0.09327615  0.84909869    -0.80380
O547        O  0.37570159  0.20909220  0.78744714    -0.80420
C548        C  0.35115734  0.17922675  0.76995848     1.09310
C549        C  0.40579012  0.11692603  0.86671680     1.09200
C550        C  0.45081928  0.23576062  0.80523599     1.09330
C551        C  0.27739829  0.05893989  0.79768131     1.09210
O552        O  0.25950149  0.13524465  0.85679641    -0.80380
O553        O  0.40170168  0.23052262  0.86796243    -0.80460
O554        O  0.31522573  0.21883172  0.80481352    -0.80390
O555        O  0.33621178  0.12200136  0.89059537    -0.80370
O556        O  0.38371550  0.19114079  0.87870871    -0.80420
O557        O  0.25242709  0.15999020  0.80020398    -0.80390
O558        O  0.26081006  0.07532744  0.86409071    -0.80350
O559        O  0.38487758  0.27001193  0.84032643    -0.80420
Co560      Co  0.28987908  0.14367456  0.81727477     1.51530
Co561      Co  0.39900736  0.18429767  0.83663228     1.51690
Co562      Co  0.35802760  0.20878750  0.83043293     1.51570
Co563      Co  0.32081237  0.08974885  0.85371514     1.51470
O564        O  0.33801068  0.14446364  0.83250428    -1.42310
C565        C  0.24731509  0.10120215  0.87159345     1.09240
C566        C  0.40129454  0.26663170  0.86388144     1.09330
C567        C  0.27722501  0.19931454  0.79419574     1.09270
C568        C  0.35888735  0.16134420  0.89699058     1.09240
O569        O  0.24573464  0.29798545  0.68040151    -0.80380
O570        O  0.15470791  0.32844334  0.61338014    -0.80400
O571        O  0.13763623  0.23703043  0.65507290    -0.80410
O572        O  0.24208329  0.40705456  0.63041639    -0.80350
O573        O  0.09894310  0.26027558  0.63512313    -0.80470
O574        O  0.27388962  0.36968137  0.64278214    -0.80390
O575        O  0.19821885  0.39575232  0.61935396    -0.80380
O576        O  0.18537519  0.26170749  0.70628591    -0.80420
C577        C  0.22379242  0.27043378  0.70027029     1.09310
C578        C  0.17499068  0.36487915  0.60264048     1.09200
C579        C  0.11315783  0.23392580  0.63461037     1.09330
C580        C  0.27027230  0.39467605  0.62520539     1.09210
O581        O  0.25221510  0.41492089  0.69421994    -0.80380
O582        O  0.09329873  0.29982987  0.69180990    -0.80460
O583        O  0.15936990  0.32503483  0.71741567    -0.80390
O584        O  0.14643682  0.39607735  0.64491716    -0.80370
O585        O  0.08829565  0.33439885  0.63812140    -0.80420
O586        O  0.22534466  0.34143617  0.72188675    -0.80390
O587        O  0.21620196  0.44393469  0.67463967    -0.80350
O588        O  0.09769112  0.24417834  0.70925933    -0.80420
Co589      Co  0.24544235  0.35401377  0.68203476     1.51530
Co590      Co  0.12937952  0.31892150  0.65214402     1.51690
Co591      Co  0.14807649  0.28126263  0.68668418     1.51570
Co592      Co  0.19485776  0.38590361  0.66329083     1.51470
O593        O  0.18627720  0.32576019  0.66171072    -1.42310
C594        C  0.24154687  0.44524038  0.69375948     1.09240
C595        C  0.07933800  0.26752242  0.70982472     1.09330
C596        C  0.19315188  0.34338102  0.73088391     1.09270
C597        C  0.10805713  0.37494169  0.63523365     1.09240
O598        O  0.23438140  0.34796111  0.95911143    -0.80380
O599        O  0.14029795  0.32657853  0.85880752    -0.80400
O600        O  0.13848105  0.24909653  0.89687246    -0.80410
O601        O  0.23984464  0.43255283  0.88933950    -0.80350
O602        O  0.08552850  0.26114275  0.88650910    -0.80470
O603        O  0.25585953  0.38494607  0.90226381    -0.80390
O604        O  0.17289548  0.39577288  0.86016763    -0.80380
O605        O  0.20714454  0.28830340  0.93505246    -0.80420
C606        C  0.22961632  0.31058144  0.95593010     1.09310
C607        C  0.16247562  0.36172194  0.84683949     1.09200
C608        C  0.10593543  0.24006036  0.88194161     1.09330
C609        C  0.26174615  0.41399026  0.88429820     1.09210
O610        O  0.25098156  0.43110218  0.95310275    -0.80380
O611        O  0.08325069  0.31910567  0.93470264    -0.80460
O612        O  0.15458592  0.30522397  0.97579561    -0.80390
O613        O  0.11523958  0.39067492  0.90362927    -0.80370
O614        O  0.07262382  0.33432992  0.87807010    -0.80420
O615        O  0.16888322  0.37012943  0.96437830    -0.80390
O616        O  0.19518603  0.43875123  0.94265985    -0.80350
O617        O  0.08571717  0.26096547  0.94334486    -0.80420
Co618      Co  0.21278191  0.37910392  0.93398228     1.51530
Co619      Co  0.11388266  0.32480180  0.89647703     1.51690
Co620      Co  0.14820620  0.28017135  0.93559377     1.51570
Co621      Co  0.17836886  0.40522021  0.90202833     1.51470
O622        O  0.16759416  0.33772527  0.91246628    -1.42310
C623        C  0.22965317  0.45090193  0.95755360     1.09240
C624        C  0.06934354  0.28500562  0.94916736     1.09330
C625        C  0.15759010  0.34100874  0.48287908     1.09270
C626        C  0.08930309  0.37453345  0.88195142     1.09240
O627        O  0.44325398  0.40176814  0.97903238    -0.80380
O628        O  0.02635922  0.02270841  0.55754028    -0.80400
O629        O  0.04581661  0.44046397  0.01771855    -0.80410
O630        O  0.43521868  0.50881479  0.53233147    -0.80350
O631        O  0.07736111  0.49931786  0.54289144    -0.80470
O632        O  0.40964268  0.44431320  0.51388407    -0.80390
O633        O  0.47282518  0.03314498  0.54644569    -0.80380
O634        O  0.50711028  0.42198352  0.95952157    -0.80420
C635        C  0.46704719  0.39535333  0.96036840     1.09310
C636        C  0.99423400  0.02613534  0.56516076     1.09200
C637        C  0.06383243  0.45916908  0.54133779     1.09330
C638        C  0.40650068  0.46875251  0.53295211     1.09210
O639        O  0.44580893  0.01543286  0.96846433    -0.80380
O640        O  0.10148440  0.04715640  0.98373896    -0.80460
O641        O  0.04034450  0.51176563  0.95262186    -0.80390
O642        O  0.03765255  0.09120786  0.52797030    -0.80370
O643        O  0.09637016  0.08657854  0.53584523    -0.80420
O644        O  0.47579651  0.46922860  0.94038109    -0.80390
O645        O  0.47087963  0.07582302  0.99322726    -0.80350
O646        O  0.09669910  0.98641307  0.96612033    -0.80420
Co647      Co  0.44728633  0.45957631  0.97848271     1.51530
Co648      Co  0.05673437  0.03307281  0.51979543     1.51690
Co649      Co  0.04271110  0.47613462  0.98428409     1.51570
Co650      Co  0.49108685  0.03731120  0.50459846     1.51470
O651        O  0.00085684  0.98549484  0.00554416    -1.42310
C652        C  0.45270563  0.05446443  0.97071809     1.09240
C653        C  0.11662284  0.02734163  0.96659356     1.09330
C654        C  0.51349839  0.49425709  0.93362739     1.09270
C655        C  0.07513456  0.10671188  0.53944391     1.09240
O656        O  0.42830248  0.40447392  0.73347520    -0.80380
O657        O  0.00394772  0.97700330  0.79748910    -0.80400
O658        O  0.04154334  0.45141524  0.76431769    -0.80410
O659        O  0.41915936  0.51664362  0.78227683    -0.80350
O660        O  0.08677824  0.51124839  0.78496949    -0.80470
O661        O  0.39602831  0.44853742  0.77091921    -0.80390
O662        O  0.48173136  0.02103090  0.80918846    -0.80380
O663        O  0.49065818  0.42385247  0.71089321    -0.80420
C664        C  0.45094878  0.39710794  0.71428793     1.09310
C665        C  0.99331082  0.99460572  0.81652884     1.09200
C666        C  0.07052289  0.47062301  0.78374729     1.09330
C667        C  0.39446617  0.47666580  0.78796400     1.09210
O668        O  0.41680521  0.01072416  0.72067530    -0.80380
O669        O  0.08255884  0.04893760  0.73190153    -0.80460
O670        O  0.01864581  0.51076028  0.69760535    -0.80390
O671        O  0.00246719  0.09462352  0.78575371    -0.80370
O672        O  0.05289914  0.07364713  0.78915657    -0.80420
O673        O  0.45052502  0.46676569  0.69091777    -0.80390
O674        O  0.47851234  0.06521466  0.72940590    -0.80350
O675        O  0.07975272  0.99130008  0.71123158    -0.80420
Co676      Co  0.42534438  0.45888615  0.73067034     1.51530
Co677      Co  0.04015603  0.01421660  0.76641886     1.51690
Co678      Co  0.02695411  0.48166379  0.73055429     1.51570
Co679      Co  0.48183364  0.04097438  0.76824286     1.51470
O680        O  0.98163790  0.99189771  0.75007388    -1.42310
C681        C  0.44503419  0.04932455  0.71473082     1.09240
C682        C  0.09899252  0.03196212  0.71348281     1.09330
C683        C  0.48732638  0.49264102  0.68157301     1.09270
C684        C  0.03774301  0.10046042  0.79563795     1.09240
C685        C  0.01203990  0.45929601  0.88835193    -0.12510
C686        C  0.02532852  0.49802398  0.90340597     0.04500
C687        C  0.53758641  0.03628929  0.88856473    -0.07800
C688        C  0.52957079  0.03334267  0.85901393    -0.08540
C689        C  0.00607589  0.99353937  0.84570187    -0.03090
C690        C  0.00076833  0.45594126  0.85925893     0.03730
N691        N  0.98121144  0.41436992  0.84537079     0.66230
H692        H  0.00496547  0.43060261  0.90040250     0.15130
H693        H  0.53963075  0.06216436  0.84670866     0.14840
N694        N  0.55581479  0.07733679  0.90303860     0.73940
O695        O  0.98564946  0.38427963  0.85597736    -0.39510
O696        O  0.95559207  0.40579376  0.82490485    -0.39460
O697        O  0.58162877  0.11063341  0.88925866    -0.40160
O698        O  0.54441380  0.08119309  0.92893701    -0.40230
C699        C  0.97208141  0.47638162  0.60310911    -0.12510
C700        C  0.98051894  0.01733909  0.59491983     0.04500
C701        C  0.49356536  0.05102851  0.61532996    -0.07800
C702        C  0.49865645  0.04255759  0.64396327    -0.08540
C703        C  0.99267331  0.50245689  0.65141287    -0.03090
C704        C  0.98234350  0.46972674  0.63068478     0.03730
N705        N  0.98752651  0.43270734  0.63610505     0.66230
H706        H  0.96462717  0.45188609  0.58643233     0.15130
H707        H  0.50660684  0.06689506  0.66074983     0.14840
N708        N  0.50257440  0.09352694  0.60742845     0.73940
O709        O  0.97378483  0.40200688  0.61813499    -0.39510
O710        O  0.01423528  0.43501447  0.65427448    -0.39460
O711        O  0.49532996  0.10138285  0.58204946    -0.40160
O712        O  0.01420421  0.12264581  0.62660885    -0.40230
C713        C  0.06246145  0.37955113  0.83301649    -0.12510
C714        C  0.08372342  0.40076431  0.85835035     0.04500
C715        C  0.10301130  0.44574652  0.85814131    -0.07800
C716        C  0.09957473  0.46779485  0.83350961    -0.08540
C717        C  0.07758537  0.44621695  0.80818689    -0.03090
C718        C  0.05923908  0.40121396  0.80851529     0.03730
N719        N  0.04020770  0.37626824  0.78334222     0.66230
H720        H  0.04914274  0.34524180  0.83138995     0.15130
H721        H  0.11327074  0.50199907  0.83448950     0.14840
N722        N  0.12679500  0.46947960  0.88253099     0.73940
O723        O  0.05421312  0.35167286  0.77402377    -0.39510
O724        O  0.00306882  0.36825128  0.77723200    -0.39460
O725        O  0.16680191  0.48920199  0.88015185    -0.40160
O726        O  0.10877896  0.96341011  0.90766997    -0.40230
C727        C  0.05081007  0.16796266  0.86474113    -0.12510
C728        C  0.09066071  0.20365544  0.86006533     0.04500
C729        C  0.11399356  0.20416149  0.83402866    -0.07800
C730        C  0.09762605  0.16958606  0.81399132    -0.08540
C731        C  0.05711954  0.13466999  0.81846752    -0.03090
C732        C  0.03346606  0.13417260  0.84441569     0.03730
N733        N  0.99259208  0.09860888  0.85151893     0.66230
H734        H  0.03221997  0.16669609  0.88401866     0.15130
H735        H  0.11551407  0.17151778  0.79381504     0.14840
N736        N  0.15053048  0.24227515  0.82482601     0.73940
O737        O  0.98554390  0.08158860  0.87657111    -0.39510
O738        O  0.46202560  0.08754971  0.83464568    -0.39460
O739        O  0.18573265  0.24234227  0.82183336    -0.40160
O740        O  0.14451338  0.26863509  0.81031534    -0.40230
C741        C  0.32271091  0.46149954  0.81031952    -0.12510
C742        C  0.36138639  0.46158000  0.81355300     0.04500
C743        C  0.36543208  0.44383033  0.84033548    -0.07800
C744        C  0.33055084  0.42347765  0.86058752    -0.08540
C745        C  0.29403040  0.42808467  0.85869106    -0.03090
C746        C  0.29110155  0.44909861  0.83315163     0.03730
N747        N  0.25687497  0.45867229  0.82964660     0.66230
H748        H  0.31759021  0.47242581  0.79016410     0.15130
H749        H  0.33473638  0.40991235  0.88053460     0.14840
N750        N  0.40597201  0.45519865  0.85133616     0.73940
O751        O  0.25219358  0.48378004  0.84744859    -0.39510
O752        O  0.24016145  0.45279647  0.80497648    -0.39460
O753        O  0.42822224  0.99385765  0.85838890    -0.40160
O754        O  0.41022926  0.42732201  0.86542849    -0.40230
C755        C  0.21833970  0.35502494  0.77952933    -0.12510
C756        C  0.19403600  0.36184484  0.75899515     0.04500
C757        C  0.16615789  0.37804489  0.76748552    -0.07800
C758        C  0.15686828  0.37798345  0.79726628    -0.08540
C759        C  0.17579132  0.36368509  0.81731985    -0.03090
C760        C  0.20892525  0.35473182  0.80909360     0.03730
N761        N  0.23128337  0.34271878  0.82961327     0.66230
H762        H  0.24124937  0.34467763  0.77259447     0.15130
H763        H  0.13440348  0.38844149  0.80496403     0.14840
N764        N  0.14824361  0.39546998  0.74713693     0.73940
O765        O  0.26706557  0.34605164  0.82224295    -0.39510
O766        O  0.21441543  0.32543503  0.85396433    -0.39460
O767        O  0.15253001  0.39285376  0.71970108    -0.40160
O768        O  0.13232449  0.41842389  0.75666782    -0.40230
C769        C  0.18861214  0.39093417  0.52322747    -0.12510
C770        C  0.15530441  0.35216914  0.51330383     0.04500
C771        C  0.12433288  0.32435636  0.53332791    -0.07800
C772        C  0.12808509  0.33598992  0.56245649    -0.08540
C773        C  0.16581530  0.36951416  0.57266636    -0.03090
C774        C  0.19495128  0.39961204  0.55308292     0.03730
N775        N  0.23341776  0.43476155  0.56283140     0.66230
H776        H  0.21337457  0.41108893  0.50810681     0.15130
H777        H  0.10425043  0.31449346  0.57783978     0.14840
N778        N  0.09170343  0.28265450  0.52575767     0.73940
O779        O  0.26860318  0.44191196  0.55104792    -0.39510
O780        O  0.23228888  0.45987220  0.58232369    -0.39460
O781        O  0.10188321  0.25574100  0.51504683    -0.40160
O782        O  0.05588113  0.26880569  0.53868841    -0.40230
C783        C  0.09167131  0.45952058  0.59231672    -0.12510
C784        C  0.07081376  0.43625300  0.56723573     0.04500
C785        C  0.05615792  0.39183922  0.56859986    -0.07800
C786        C  0.06621735  0.37300035  0.59199515    -0.08540
C787        C  0.09041001  0.39662880  0.61556651    -0.03090
C788        C  0.10004625  0.44030319  0.61682637     0.03730
N789        N  0.11262506  0.46438638  0.64359599     0.66230
H790        H  0.10073848  0.99317248  0.59322539     0.15130
H791        H  0.05525271  0.33893292  0.59131941     0.14840
N792        N  0.03106328  0.36437662  0.54634219     0.73940
O793        O  0.10814431  0.99735435  0.64615671    -0.39510
O794        O  0.11822122  0.44848785  0.66650174    -0.39460
O795        O  0.03965669  0.33559240  0.53757112    -0.40160
O796        O  0.99437192  0.35993496  0.54301058    -0.40230
C797        C  0.12709330  0.18027129  0.60561881    -0.12510
C798        C  0.10356011  0.20262430  0.60919922     0.04500
C799        C  0.07318098  0.19574465  0.58733612    -0.07680
C800        C  0.06976123  0.16946016  0.56269759    -0.08540
C801        C  0.09028489  0.14427849  0.56068312    -0.03090
C802        C  0.11966606  0.15051480  0.58264398     0.03730
N803        N  0.14066182  0.12506422  0.58292208     0.66230
H804        H  0.15057159  0.18468340  0.62151047     0.15130
H805        H  0.04703277  0.16505493  0.54644999     0.14840
N806        N  0.04067794  0.20853269  0.59160179     0.73940
O807        O  0.17353008  0.13560370  0.56679983    -0.39510
O808        O  0.12143823  0.08790008  0.59370422    -0.39460
O809        O  0.04995049  0.24707666  0.59523301    -0.40160
O810        O  0.00256084  0.18210815  0.58671302    -0.40230
C811        C  0.37134841  0.47128938  0.58298330    -0.12510
C812        C  0.37081303  0.44940284  0.55663864     0.04500
C813        C  0.33744462  0.40649100  0.55460846    -0.07800
C814        C  0.30410691  0.38939680  0.57633656    -0.08540
C815        C  0.30278066  0.41348700  0.60057301    -0.03090
C816        C  0.33784808  0.45342658  0.60478037     0.03730
N817        N  0.34184313  0.47188986  0.63344783     0.66230
H818        H  0.39908815  0.50089153  0.58726148     0.15130
H819        H  0.27950487  0.35679501  0.57489008     0.14840
N820        N  0.33949352  0.37817046  0.53264620     0.73940
O821        O  0.36000896  0.46137782  0.65219467    -0.39510
O822        O  0.31389409  0.48159812  0.64284508    -0.39460
O823        O  0.35273120  0.35244654  0.53943599    -0.40160
O824        O  0.33507976  0.38343606  0.50589612    -0.40230
C825        C  0.40733350  0.04535126  0.92892054    -0.12510
C826        C  0.44180144  0.07351110  0.94529928     0.04500
C827        C  0.46588765  0.11625933  0.93473387    -0.07800
C828        C  0.45149316  0.12909349  0.91007319    -0.08540
C829        C  0.41661869  0.10047848  0.89374842    -0.03090
C830        C  0.39289464  0.05837572  0.90470013     0.03730
N831        N  0.35254337  0.02875736  0.89350634     0.66230
H832        H  0.39043532  0.01228278  0.93579552     0.15130
H833        H  0.46898736  0.16184193  0.90258010     0.14840
N834        N  0.50688335  0.14604507  0.94574832     0.73940
O835        O  0.33944916  0.48967010  0.89794191    -0.39510
O836        O  0.32535196  0.04074622  0.88892444    -0.39460
O837        O  0.02661997  0.13464493  0.96271538    -0.40160
O838        O  0.52705644  0.18253849  0.93422325    -0.40230
C839        C  0.22630277  0.08727418  0.92520782    -0.12510
C840        C  0.21455155  0.08870756  0.89626727     0.04500
C841        C  0.17119606  0.07408833  0.89115697    -0.07800
C842        C  0.14080052  0.05586301  0.91477760    -0.08540
C843        C  0.15192960  0.05210250  0.94363243    -0.03090
C844        C  0.19602426  0.07092997  0.94905878     0.03730
N845        N  0.21090102  0.07532178  0.97843006     0.66230
H846        H  0.25972818  0.09968093  0.92925577     0.15130
H847        H  0.10776372  0.04235702  0.91024667     0.14840
N848        N  0.15725099  0.07507198  0.86196165     0.73940
O849        O  0.24897486  0.08458103  0.98259439    -0.39510
O850        O  0.18877851  0.07782850  0.99980174    -0.39460
O851        O  0.17772308  0.07301263  0.83935315    -0.40160
O852        O  0.12337416  0.07670911  0.85850351    -0.40230
C853        C  0.47160279  0.34186937  0.92432710    -0.12510
C854        C  0.44797544  0.36103618  0.93643080     0.04500
C855        C  0.40828476  0.34954599  0.92318996    -0.07800
C856        C  0.39483415  0.32106968  0.89866973    -0.08540
C857        C  0.41816930  0.30101650  0.88761575    -0.03090
C858        C  0.45643888  0.31115015  0.90157640     0.03730
N859        N  0.48151562  0.29161165  0.89196081     0.66230
H860        H  0.50280920  0.35113964  0.93207582     0.15130
H861        H  0.36507944  0.31356367  0.88874182     0.14840
N862        N  0.38117055  0.36665334  0.93374086     0.73940
O863        O  0.99128001  0.29180863  0.86508166    -0.39510
O864        O  0.49475531  0.27493149  0.91030793    -0.39460
O865        O  0.39500767  0.40650399  0.93468273    -0.40160
O866        O  0.34167230  0.34232912  0.93677227    -0.40230
C867        C  0.29717451  0.51822970  0.75957821    -0.12510
C868        C  0.26810767  0.03215113  0.76969844     0.04500
C869        C  0.23185852  0.02005219  0.75262594    -0.07800
C870        C  0.22433928  0.99228081  0.72817737    -0.08540
C871        C  0.25301754  0.47749833  0.71869151    -0.03090
C872        C  0.28948586  0.49047562  0.73524782     0.03730
N873        N  0.32000326  0.47707904  0.72678746     0.66230
H874        H  0.32712062  0.53020648  0.77030807     0.15130
H875        H  0.19536704  0.98156341  0.71653743     0.14840
N876        N  0.20275370  0.03617034  0.75922019     0.73940
O877        O  0.33976743  0.48954937  0.70245488    -0.39510
O878        O  0.31910516  0.44526763  0.73928051    -0.39460
O879        O  0.21480307  0.07545879  0.75582928    -0.40160
O880        O  0.16357729  0.01056077  0.76192728    -0.40230
C881        C  0.48764941  0.27156004  0.75620414    -0.12510
C882        C  0.48477795  0.24694220  0.78097938     0.04500
C883        C  0.01357899  0.23022931  0.78163440    -0.07800
C884        C  0.04267081  0.23656306  0.75825131    -0.08540
C885        C  0.04590055  0.26102877  0.73349934    -0.03090
C886        C  0.01928144  0.28073878  0.73339759     0.03730
N887        N  0.02597965  0.31255008  0.71185264     0.66230
H888        H  0.46652769  0.28534911  0.75510577     0.15130
H889        H  0.06339258  0.22234110  0.75982079     0.14840
N890        N  0.01276603  0.20500782  0.80575298     0.73940
O891        O  0.52753657  0.30502238  0.68493302    -0.39510
O892        O  0.03299219  0.34943607  0.71965753    -0.39460
O893        O  0.98501426  0.16622141  0.80707365    -0.40160
O894        O  0.03256163  0.22355480  0.82838535    -0.40230
C895        C  0.24193683  0.19395092  0.74751560    -0.12510
C896        C  0.26489408  0.22014134  0.77076759     0.04500
C897        C  0.27986340  0.26476351  0.76820116    -0.07800
C898        C  0.26866145  0.28078323  0.74359160    -0.08540
C899        C  0.24398648  0.25382133  0.72098448    -0.03090
C900        C  0.23270649  0.21016784  0.72241324     0.03730
N901        N  0.21622712  0.18239057  0.69765213     0.66230
H902        H  0.23264279  0.16022270  0.74820274     0.15130
H903        H  0.27806858  0.31449953  0.74260750     0.14840
N904        N  0.30499204  0.29405434  0.79050029     0.73940
O905        O  0.22388930  0.15137576  0.69485099    -0.39510
O906        O  0.20090539  0.19219550  0.67641124    -0.39460
O907        O  0.33157248  0.33202985  0.78374284    -0.40160
O908        O  0.29777565  0.28360198  0.81729626    -0.40230
C909        C  0.33535511  0.19921841  0.96855715    -0.12510
C910        C  0.34039118  0.17118267  0.98709304     0.04500
C911        C  0.35723490  0.14482255  0.97634763    -0.07800
C912        C  0.36714334  0.14659466  0.94654244    -0.08540
C913        C  0.35795907  0.17129285  0.92753522    -0.03090
C914        C  0.34137281  0.19785805  0.93829858     0.03730
N915        N  0.32690506  0.22017973  0.91945425     0.66230
H916        H  0.32428499  0.22052863  0.97774124     0.15130
H917        H  0.37880803  0.12569259  0.93757589     0.14840
N918        N  0.36211223  0.11457990  0.49443484     0.73940
O919        O  0.32008391  0.24953700  0.92987817    -0.39510
O920        O  0.31404454  0.20628595  0.89412851    -0.39460
O921        O  0.34847450  0.10790235  0.52074142    -0.40160
O922        O  0.38015370  0.09396653  0.48408528    -0.40230
C923        C  0.33832259  0.13141092  0.69730877    -0.12510
C924        C  0.32653159  0.15793248  0.68246873     0.04500
C925        C  0.33142559  0.19631584  0.69567198    -0.07800
C926        C  0.34817624  0.20685041  0.72361148    -0.08540
C927        C  0.35880772  0.17968002  0.73873304    -0.03090
C928        C  0.35512368  0.14204015  0.72526397     0.03730
N929        N  0.36764740  0.11417211  0.73975024     0.66230
H930        H  0.33731511  0.10386767  0.68605708     0.15130
H931        H  0.34942989  0.23457106  0.73478680     0.14840
N932        N  0.32053588  0.22520192  0.68080235     0.73940
O933        O  0.36713197  0.08279038  0.72610183    -0.39510
O934        O  0.38287657  0.12261635  0.76504299    -0.39460
O935        O  0.29764813  0.21333239  0.65857698    -0.40160
O936        O  0.33153480  0.26207887  0.69100307    -0.40230
C937        C  0.42004835  0.05723469  0.66387748    -0.12510
C938        C  0.43847862  0.07608365  0.69087712     0.04500
C939        C  0.45070219  0.12047785  0.69390849    -0.07800
C940        C  0.44034595  0.14223865  0.67218546    -0.08540
C941        C  0.41910221  0.12171842  0.64655912    -0.03090
C942        C  0.41007841  0.07931418  0.64220450     0.03730
N943        N  0.39316176  0.06017045  0.61452531     0.66230
H944        H  0.41626019  0.02617750  0.65904417     0.15130
H945        H  0.44835348  0.17535213  0.67567411     0.14840
N946        N  0.47235140  0.14403070  0.71923148     0.73940
O947        O  0.41690911  0.07452403  0.59189565    -0.39510
O948        O  0.35395009  0.04545531  0.61110016    -0.39460
O949        O  0.50824779  0.14782945  0.72470342    -0.40160
O950        O  0.46094181  0.16913517  0.73151357    -0.40230
C951        C  0.16767102  0.04427893  0.68900974    -0.12510
C952        C  0.13683853  0.05783942  0.69327184     0.04500
C953        C  0.13837686  0.08921276  0.67375545    -0.07800
C954        C  0.16935710  0.10463190  0.65031498    -0.08540
C955        C  0.20016292  0.09078659  0.64601870    -0.03090
C956        C  0.19825035  0.05942229  0.66561354     0.03730
N957        N  0.22437988  0.03951012  0.66046847     0.66230
H958        H  0.16547981  0.01884298  0.70260465     0.15130
H959        H  0.17071371  0.12942156  0.63626977     0.14840
N960        N  0.10896249  0.10581048  0.67721688     0.73940
O961        O  0.25521664  0.54827034  0.67671879    -0.39510
O962        O  0.21865169  0.01569711  0.63837629    -0.39460
O963        O  0.10426754  0.12030069  0.70176716    -0.40160
O964        O  0.09366113  0.11311261  0.65486842    -0.40230
C965        C  0.39406511  0.33418154  0.64526867    -0.12510
C966        C  0.40979412  0.30526292  0.64174084     0.04500
C967        C  0.43276847  0.30144141  0.66552471    -0.07800
C968        C  0.44270588  0.32935119  0.68994123    -0.08540
C969        C  0.43040338  0.36119304  0.69212856    -0.03090
C970        C  0.40353267  0.36159914  0.66995607     0.03730
N971        N  0.38685384  0.39085754  0.67077570     0.66230
H972        H  0.37427161  0.33574916  0.62843842     0.15130
H973        H  0.46008993  0.32603240  0.70756500     0.14840
N974        N  0.44473305  0.26826681  0.66614345     0.73940
O975        O  0.38259952  0.40538106  0.64680634    -0.39510
O976        O  0.36816582  0.39472090  0.69377572    -0.39460
O977        O  0.47140956  0.26786885  0.64734942    -0.40160
O978        O  0.43495279  0.24440499  0.68842713    -0.40230
C979        C  0.20959990  0.48769854  0.99865285    -0.12510
C980        C  0.24120057  0.48183321  0.98330561     0.04500
C981        C  0.28127735  0.49825183  0.99663181    -0.07800
C982        C  0.28869776  0.01996759  0.52376467    -0.08540
C983        C  0.25803188  0.02809975  0.53810343    -0.03090
C984        C  0.21732401  0.01000589  0.52589008     0.03730
N985        N  0.18293421  0.01268382  0.54114559     0.66230
H986        H  0.17806735  0.47320516  0.98992888     0.15130
H987        H  0.31966452  0.03223066  0.53314437     0.14840
N988        N  0.31572344  0.49510885  0.98209293     0.73940
O989        O  0.14971716  0.00368452  0.52770880    -0.39510
O990        O  0.18338148  0.01920773  0.56849984    -0.39460
O991        O  0.32301577  0.00387121  0.95519449    -0.40160
O992        O  0.34257336  0.49042970  0.99660451    -0.40230
C993        C  0.47993210  0.28491758  0.49890171    -0.12510
C994        C  0.46478257  0.24708435  0.51550503     0.04500
C995        C  0.48160710  0.21887108  0.50737824    -0.07800
C996        C  0.01471764  0.23208324  0.98540035    -0.08540
C997        C  0.03316600  0.27242077  0.97175062    -0.03090
C998        C  0.01726915  0.30040687  0.48072898     0.03730
N999        N  0.04248130  0.34598913  0.47688031     0.66230
H1000       H  0.46639584  0.30587788  0.50346156     0.15130
H1001       H  0.02910453  0.21202046  0.98101963     0.14840
N1002       N  0.46750071  0.17768833  0.02094305     0.73940
O1003       O  0.02547639  0.36919679  0.48239149    -0.39510
O1004       O  0.08237760  0.36340904  0.97810205    -0.39460
O1005       O  0.43017827  0.15621112  0.03110107    -0.40160
O1006       O  0.48982587  0.15905465  0.51798144    -0.40230
C1007       C  0.26287176  0.28591950  0.53007123    -0.12510
C1008       C  0.26746621  0.25021783  0.52344269     0.04500
C1009       C  0.25386361  0.23088033  0.99556001    -0.07800
C1010       C  0.24545755  0.25290743  0.97334611    -0.08540
C1011       C  0.24413860  0.29110317  0.97927057    -0.03090
C1012       C  0.24964424  0.30535582  0.50906059     0.03730
N1013       N  0.23752911  0.33604211  0.51965423     0.66230
H1014       H  0.26855165  0.29799800  0.55224111     0.15130
H1015       H  0.23640042  0.23825772  0.95194327     0.14840
N1016       N  0.24100270  0.18652000  0.99127380     0.73940
O1017       O  0.21412279  0.32730323  0.54265332    -0.39510
O1018       O  0.25841281  0.37440108  0.01138599    -0.39460
O1019       O  0.21860164  0.16061136  0.01124059    -0.40160
O1020       O  0.24132817  0.17231684  0.96572262    -0.40230
O1021       O  0.29214652  0.66529372  0.02485073    -0.80380
O1022       O  0.42555138  0.68141365  0.11739832    -0.80400
O1023       O  0.41477938  0.76395222  0.04214369    -0.80410
O1024       O  0.29668858  0.56538901  0.08158377    -0.80350
O1025       O  0.42173747  0.71019376  0.06037512    -0.80470
O1026       O  0.26335885  0.59343442  0.05738132    -0.80390
O1027       O  0.36466729  0.62107474  0.11567223    -0.80380
O1028       O  0.35590511  0.68225497  0.03608635    -0.80420
C1029       C  0.32851187  0.67160656  0.51746988     1.09310
C1030       C  0.40320260  0.64261817  0.12510028     1.09200
C1031       C  0.43353054  0.74095738  0.04106571     1.09330
C1032       C  0.27205054  0.56259074  0.06118140     1.09210
O1033       O  0.23256857  0.63454380  0.10273726    -0.80380
O1034       O  0.41491361  0.75206706  0.11258442    -0.80460
O1035       O  0.32686536  0.74496630  0.04164951    -0.80390
O1036       O  0.30689106  0.62245827  0.13547150    -0.80370
O1037       O  0.35894228  0.68808774  0.13900689    -0.80420
O1038       O  0.26476620  0.70735910  0.06492152    -0.80390
O1039       O  0.26657681  0.60286448  0.12103307    -0.80350
O1040       O  0.37260268  0.77267908  0.09572853    -0.80420
Co1041     Co  0.26768178  0.65291343  0.06524608     1.51530
Co1042     Co  0.38369962  0.69273036  0.09982951     1.51690
Co1043     Co  0.36410972  0.72761107  0.06466973     1.51570
Co1044     Co  0.31741458  0.62492866  0.09112552     1.51470
O1045       O  0.32498966  0.68395106  0.08909483    -1.42310
C1046       C  0.23428788  0.60985428  0.12178651     1.09240
C1047       C  0.39872356  0.77627507  0.11519788     1.09330
C1048       C  0.28744981  0.73447663  0.04520632     1.09270
C1049       C  0.32917132  0.65587201  0.15084866     1.09240
O1050       O  0.31635714  0.64924161  0.27886127    -0.80380
O1051       O  0.42154158  0.65658646  0.36318486    -0.80400
O1052       O  0.41217083  0.72867934  0.29996662    -0.80410
O1053       O  0.30500778  0.55935263  0.31495055    -0.80350
O1054       O  0.45702363  0.72624577  0.33064448    -0.80470
O1055       O  0.25893197  0.58163531  0.30393302    -0.80390
O1056       O  0.37770954  0.59328931  0.34909827    -0.80380
O1057       O  0.37569259  0.70909226  0.28744301    -0.80420
C1058       C  0.35113851  0.67922515  0.26995950     1.09310
C1059       C  0.40579854  0.61693820  0.36671641     1.09200
C1060       C  0.45081904  0.73576107  0.30522489     1.09330
C1061       C  0.27739437  0.55894445  0.29769053     1.09210
O1062       O  0.25951359  0.63525822  0.35680763    -0.80380
O1063       O  0.40170136  0.73053830  0.36795835    -0.80460
O1064       O  0.31522419  0.71883298  0.30481737    -0.80390
O1065       O  0.33622678  0.62201615  0.39060069    -0.80370
O1066       O  0.38372486  0.69115647  0.37871036    -0.80420
O1067       O  0.25242096  0.65999508  0.30021984    -0.80390
O1068       O  0.26082010  0.57533945  0.36409979    -0.80350
O1069       O  0.38487334  0.77001722  0.34031378    -0.80420
Co1070     Co  0.28987841  0.64368108  0.31728432     1.51530
Co1071     Co  0.39901142  0.68430813  0.33663240     1.51690
Co1072     Co  0.35803169  0.70879311  0.33043049     1.51570
Co1073     Co  0.32082062  0.58975995  0.35372036     1.51470
O1074       O  0.33801464  0.64447104  0.33250674    -1.42310
C1075       C  0.24732573  0.60121459  0.37160238     1.09240
C1076       C  0.40128563  0.76664259  0.36387210     1.09330
C1077       C  0.27722012  0.69931737  0.29420636     1.09270
C1078       C  0.35890140  0.66136026  0.39699473     1.09240
O1079       O  0.24573571  0.79796848  0.18039781    -0.80380
O1080       O  0.15463837  0.82838548  0.11339890    -0.80400
O1081       O  0.13760998  0.73700185  0.15509348    -0.80410
O1082       O  0.24204137  0.90700861  0.13040113    -0.80350
O1083       O  0.09889362  0.76023622  0.13516505    -0.80470
O1084       O  0.27386272  0.86964937  0.14276694    -0.80390
O1085       O  0.19817370  0.89569295  0.11935053    -0.80380
O1086       O  0.18538471  0.76169428  0.20629153    -0.80420
C1087       C  0.22379957  0.77042068  0.20027003     1.09310
C1088       C  0.17492650  0.86481284  0.10264834     1.09200
C1089       C  0.11311300  0.73389068  0.13464188     1.09330
C1090       C  0.27023460  0.89463655  0.12518915     1.09210
O1091       O  0.25220606  0.91489908  0.19420363    -0.80380
O1092       O  0.09330900  0.79980512  0.19185360    -0.80460
O1093       O  0.15939033  0.82502336  0.21743176    -0.80390
O1094       O  0.14641676  0.89604934  0.14492413    -0.80370
O1095       O  0.08826133  0.83437194  0.13816171    -0.80420
O1096       O  0.22536925  0.84143301  0.22188714    -0.80390
O1097       O  0.21619201  0.94391065  0.17462308    -0.80350
O1098       O  0.09771140  0.74415670  0.20929853    -0.80420
Co1099     Co  0.24543720  0.85399336  0.18202693     1.51530
Co1100     Co  0.12935081  0.81888727  0.15217303     1.51690
Co1101     Co  0.14807399  0.78124124  0.18670332     1.51570
Co1102     Co  0.19483847  0.88587265  0.16328884     1.51470
O1103       O  0.18625873  0.82572923  0.16171797    -1.42310
C1104       C  0.24154242  0.94522096  0.19373998     1.09240
C1105       C  0.07935999  0.76750142  0.20987157     1.09330
C1106       C  0.19317817  0.84337498  0.23089203     1.09270
C1107       C  0.10802985  0.87491269  0.13525478     1.09240
O1108       O  0.23438617  0.84794765  0.45912082    -0.80380
O1109       O  0.14032363  0.82658104  0.35881178    -0.80400
O1110       O  0.13848729  0.74908910  0.39687735    -0.80410
O1111       O  0.23985327  0.93254772  0.38934909    -0.80350
O1112       O  0.08554187  0.76114427  0.38650746    -0.80470
O1113       O  0.25586724  0.88493835  0.40226865    -0.80390
O1114       O  0.17291058  0.89577405  0.36017411    -0.80380
O1115       O  0.20714476  0.78828306  0.43506864    -0.80420
C1116       C  0.22961908  0.81056604  0.45594446     1.09310
C1117       C  0.16250250  0.86172565  0.34684570     1.09200
C1118       C  0.10594547  0.74005805  0.38194344     1.09330
C1119       C  0.26175290  0.91398426  0.38430412     1.09210
O1120       O  0.25098712  0.93108978  0.45311124    -0.80380
O1121       O  0.08325676  0.81910307  0.43469978    -0.80460
O1122       O  0.15458217  0.80520967  0.47580003    -0.80390
O1123       O  0.11524999  0.89068122  0.40362883    -0.80370
O1124       O  0.07264575  0.83433510  0.37806493    -0.80420
O1125       O  0.16888929  0.87011895  0.46438542    -0.80390
O1126       O  0.19519405  0.93874288  0.44266781    -0.80350
O1127       O  0.08571905  0.76096066  0.44334337    -0.80420
Co1128     Co  0.21278898  0.87909299  0.43398962     1.51530
Co1129     Co  0.11389759  0.82480183  0.39647739     1.51690
Co1130     Co  0.14820814  0.78016096  0.43559919     1.51570
Co1131     Co  0.17837774  0.90521476  0.40203569     1.51470
O1132       O  0.16760197  0.83771777  0.41247280    -1.42310
C1133       C  0.22966084  0.95089173  0.45756179     1.09240
C1134       C  0.06934776  0.78500314  0.44916526     1.09330
C1135       C  0.15757143  0.84097544  0.98288230     1.09270
C1136       C  0.08931595  0.87453748  0.38194955     1.09240
O1137       O  0.44324906  0.90179505  0.47901298    -0.80380
O1138       O  0.02631086  0.52268634  0.05754708    -0.80400
O1139       O  0.04584847  0.94047185  0.51770500    -0.80410
O1140       O  0.43519014  0.00880614  0.03233305    -0.80350
O1141       O  0.07733723  0.99928986  0.04290903    -0.80470
O1142       O  0.40962088  0.94430737  0.01388205    -0.80390
O1143       O  0.47281891  0.53313778  0.04643566    -0.80380
O1144       O  0.50710675  0.92202589  0.45950148    -0.80420
C1145       C  0.46704298  0.89539585  0.46034083     1.09310
C1146       C  0.99418060  0.52610826  0.06516175     1.09200
C1147       C  0.06381418  0.95914197  0.04134775     1.09330
C1148       C  0.40647379  0.96874396  0.03295059     1.09210
O1149       O  0.44582173  0.51543064  0.46845874    -0.80380
O1150       O  0.10148174  0.54717347  0.48372628    -0.80460
O1151       O  0.04035543  0.01176638  0.45261080    -0.80390
O1152       O  0.03760813  0.59119028  0.02798431    -0.80370
O1153       O  0.09632728  0.58656635  0.03586290    -0.80420
O1154       O  0.47578596  0.96927209  0.44037526    -0.80390
O1155       O  0.47090420  0.57582546  0.49321695    -0.80350
O1156       O  0.09669514  0.48642596  0.46611337    -0.80420
Co1157     Co  0.44728200  0.95960232  0.47848178     1.51530
Co1158     Co  0.05670091  0.53306153  0.01980717     1.51690
Co1159     Co  0.04273303  0.97614018  0.48427213     1.51570
Co1160     Co  0.49109566  0.53728996  0.00459280     1.51470
O1161       O  0.00085782  0.48550258  0.50554249    -1.42310
C1162       C  0.45272236  0.55446418  0.47071061     1.09240
C1163       C  0.11661912  0.52735454  0.46658473     1.09330
C1164       C  0.51349149  0.99429111  0.43362099     1.09270
C1165       C  0.07508577  0.60669324  0.03946347     1.09240
O1166       O  0.42830608  0.90449184  0.23346879    -0.80380
O1167       O  0.00393082  0.47700389  0.29748129    -0.80400
O1168       O  0.04154514  0.95141676  0.26431066    -0.80410
O1169       O  0.41915884  0.01665756  0.28227823    -0.80350
O1170       O  0.08677536  0.01124944  0.28496441    -0.80470
O1171       O  0.39602955  0.94855397  0.27091273    -0.80390
O1172       O  0.48172118  0.52101144  0.30918223    -0.80380
O1173       O  0.49066525  0.92386970  0.21089154    -0.80420
C1174       C  0.45095741  0.89712172  0.21428782     1.09310
C1175       C  0.99330504  0.49461063  0.31652410     1.09200
C1176       C  0.07052183  0.97062434  0.28374293     1.09330
C1177       C  0.39446774  0.97667823  0.28796248     1.09210
O1178       O  0.41680920  0.51071914  0.22066618    -0.80380
O1179       O  0.08255471  0.54894309  0.23190037    -0.80460
O1180       O  0.01863515  0.01074760  0.19758851    -0.80390
O1181       O  0.00246348  0.59463571  0.28575849    -0.80370
O1182       O  0.05289175  0.57365188  0.28915380    -0.80420
O1183       O  0.45054646  0.96679852  0.19091752    -0.80390
O1184       O  0.47851882  0.56520579  0.22940176    -0.80350
O1185       O  0.07974537  0.49130398  0.21123008    -0.80420
Co1186     Co  0.42535210  0.95890834  0.23066468     1.51530
Co1187     Co  0.04014670  0.51422177  0.26641510     1.51690
Co1188     Co  0.02695264  0.98166285  0.23054320     1.51570
Co1189     Co  0.48183172  0.54096197  0.26823769     1.51470
O1190       O  0.98163349  0.49191655  0.25006718    -1.42310
C1191       C  0.44504215  0.54932027  0.21472560     1.09240
C1192       C  0.09898733  0.53196576  0.21348221     1.09330
C1193       C  0.48734935  0.99266804  0.18157289     1.09270
C1194       C  0.03773914  0.60046698  0.29563934     1.09240
C1195       C  0.01202619  0.95928577  0.38834436    -0.12510
C1196       C  0.02532139  0.99801543  0.40339760     0.04500
C1197       C  0.53757600  0.53627165  0.38855758    -0.07800
C1198       C  0.52955583  0.53332326  0.35900790    -0.08540
C1199       C  0.00607784  0.49354271  0.34569506    -0.03090
C1200       C  0.00075786  0.95593238  0.35925065     0.03730
N1201       N  0.98120063  0.91436172  0.34536169     0.66230
H1202       H  0.00494798  0.93059158  0.40039515     0.15130
H1203       H  0.53961063  0.56214446  0.34670358     0.14840
N1204       N  0.55580121  0.57731913  0.40303109     0.73940
O1205       O  0.98564239  0.88427184  0.35596518    -0.39510
O1206       O  0.95557934  0.90578636  0.32489709    -0.39460
O1207       O  0.58162020  0.61061526  0.38925296    -0.40160
O1208       O  0.54439302  0.58117557  0.42892733    -0.40230
C1209       C  0.97197078  0.97637984  0.10310088    -0.12510
C1210       C  0.98045437  0.51730763  0.09491867     0.04500
C1211       C  0.49360524  0.55104938  0.11532643    -0.07800
C1212       C  0.49870331  0.54256815  0.14395553    -0.08540
C1213       C  0.99265224  0.00244356  0.15139625    -0.03090
C1214       C  0.98224124  0.96970070  0.13066797     0.03730
N1215       N  0.98738156  0.93265215  0.13607032     0.66230
H1216       H  0.96446215  0.95187741  0.08642272     0.15130
H1217       H  0.50669539  0.56691192  0.16074189     0.14840
N1218       N  0.50266726  0.59356328  0.10742522     0.73940
O1219       O  0.97360519  0.90196255  0.11809189    -0.39510
O1220       O  0.01409970  0.93492656  0.15422051    -0.39460
O1221       O  0.49545664  0.60143662  0.08204154    -0.40160
O1222       O  0.01408923  0.62261179  0.12659547    -0.40230
C1223       C  0.06248028  0.87955599  0.33301299    -0.12510
C1224       C  0.08372687  0.90076684  0.35835090     0.04500
C1225       C  0.10299282  0.94574732  0.35814767    -0.07800
C1226       C  0.09955048  0.96779548  0.33351710    -0.08540
C1227       C  0.07758220  0.94621934  0.30818676    -0.03090
C1228       C  0.05925765  0.90121792  0.30851101     0.03730
N1229       N  0.04026105  0.87627344  0.28333148     0.66230
H1230       H  0.04917941  0.84524885  0.33138216     0.15130
H1231       H  0.11322515  0.00199703  0.33450353     0.14840
N1232       N  0.12675818  0.96947808  0.38254358     0.73940
O1233       O  0.05427480  0.85167235  0.27404056    -0.39510
O1234       O  0.00313115  0.86825526  0.27719407    -0.39460
O1235       O  0.16676669  0.98918306  0.38018087    -0.40160
O1236       O  0.10882123  0.46342111  0.40766192    -0.40230
C1237       C  0.05083594  0.66794362  0.36475952    -0.12510
C1238       C  0.09067006  0.70365332  0.36006809     0.04500
C1239       C  0.11398030  0.70418003  0.33401439    -0.07800
C1240       C  0.09761244  0.66960306  0.31397921    -0.08540
C1241       C  0.05712069  0.63467140  0.31847016    -0.03090
C1242       C  0.03348299  0.63415876  0.34443100     0.03730
N1243       N  0.99261097  0.59859322  0.35153800     0.66230
H1244       H  0.03226112  0.66666287  0.38404935     0.15130
H1245       H  0.11548198  0.67154821  0.29379103     0.14840
N1246       N  0.15048041  0.74231349  0.32479313     0.73940
O1247       O  0.98556292  0.58158490  0.37659426    -0.39510
O1248       O  0.46200953  0.58754615  0.33463682    -0.39460
O1249       O  0.18568561  0.74240152  0.32172452    -0.40160
O1250       O  0.14440125  0.76867548  0.31033400    -0.40230
C1251       C  0.32271128  0.96150230  0.31032222    -0.12510
C1252       C  0.36138965  0.96158603  0.31355399     0.04500
C1253       C  0.36543959  0.94383849  0.34033636    -0.07800
C1254       C  0.33055940  0.92348124  0.36058936    -0.08540
C1255       C  0.29403602  0.92808347  0.35869522    -0.03090
C1256       C  0.29110454  0.94909897  0.33315758     0.03730
N1257       N  0.25688001  0.95867729  0.32965591     0.66230
H1258       H  0.31758958  0.97242338  0.29017747     0.15130
H1259       H  0.33474726  0.90991645  0.38053493     0.14840
N1260       N  0.40598085  0.95521272  0.35133746     0.73940
O1261       O  0.25220118  0.98378204  0.34746232    -0.39510
O1262       O  0.24017222  0.95281557  0.30498469    -0.39460
O1263       O  0.42820736  0.49382492  0.35838218    -0.40160
O1264       O  0.41023914  0.92734269  0.36543737    -0.40230
C1265       C  0.21836506  0.85501295  0.27953722    -0.12510
C1266       C  0.19406928  0.86184319  0.25900245     0.04500
C1267       C  0.16619801  0.87805264  0.26749193    -0.07800
C1268       C  0.15690890  0.87799525  0.29727229    -0.08540
C1269       C  0.17582628  0.86369274  0.31732708    -0.03090
C1270       C  0.20895163  0.85472541  0.30910162     0.03730
N1271       N  0.23130201  0.84270495  0.32962249     0.66230
H1272       H  0.24126573  0.84465330  0.27260253     0.15130
H1273       H  0.13444718  0.88845848  0.30496889     0.14840
N1274       N  0.14828698  0.89548040  0.24714276     0.73940
O1275       O  0.26708533  0.84603794  0.32225575    -0.39510
O1276       O  0.21442601  0.82541408  0.35397025    -0.39460
O1277       O  0.15255499  0.89284509  0.21970695    -0.40160
O1278       O  0.13238108  0.91844675  0.25667208    -0.40230
C1279       C  0.18853723  0.89088816  0.02324028    -0.12510
C1280       C  0.15525521  0.85211299  0.01330813     0.04500
C1281       C  0.12429004  0.82427279  0.03332648    -0.07800
C1282       C  0.12803042  0.83589293  0.06245791    -0.08540
C1283       C  0.16574568  0.86943348  0.07267327    -0.03090
C1284       C  0.19486478  0.89955507  0.05309610     0.03730
N1285       N  0.23331004  0.93472471  0.06285070     0.66230
H1286       H  0.21329579  0.91106408  0.00812555     0.15130
H1287       H  0.10420214  0.81438048  0.07783725     0.14840
N1288       N  0.09168774  0.78255833  0.02575006     0.73940
O1289       O  0.26851090  0.94188536  0.05108972    -0.39510
O1290       O  0.23214771  0.95983413  0.08233097    -0.39460
O1291       O  0.10190032  0.75567509  0.01502616    -0.40160
O1292       O  0.05586616  0.76866906  0.03868851    -0.40230
C1293       C  0.09165034  0.95948309  0.09232333    -0.12510
C1294       C  0.07078571  0.93621317  0.06724416     0.04500
C1295       C  0.05611567  0.89179189  0.06861332    -0.07800
C1296       C  0.06619388  0.87296274  0.09200904    -0.08540
C1297       C  0.09038470  0.89659482  0.11558000    -0.03090
C1298       C  0.10001920  0.94026818  0.11683650     0.03730
N1299       N  0.11259004  0.96435273  0.14360657     0.66230
H1300       H  0.10073394  0.49317277  0.09322936     0.15130
H1301       H  0.05522931  0.83889507  0.09134559     0.14840
N1302       N  0.03095015  0.86430667  0.04638326     0.73940
O1303       O  0.10816656  0.49736787  0.14615603    -0.39510
O1304       O  0.11819272  0.94845934  0.16651244    -0.39460
O1305       O  0.03933008  0.83533367  0.03772103    -0.40160
O1306       O  0.99436446  0.86009745  0.04296064    -0.40230
C1307       C  0.12704857  0.68025094  0.10563744    -0.12510
C1308       C  0.10350333  0.70258993  0.10922971     0.04500
C1309       C  0.07310822  0.69570058  0.08737539    -0.07680
C1310       C  0.06967963  0.66941144  0.06273769    -0.08540
C1311       C  0.09022316  0.64424922  0.06071014    -0.03090
C1312       C  0.11962110  0.65049838  0.08266080     0.03730
N1313       N  0.14063992  0.62506877  0.08292509     0.66230
H1314       H  0.15053995  0.68467251  0.12152086     0.15130
H1315       H  0.04693940  0.66499652  0.04649659     0.14840
N1316       N  0.04060535  0.70849001  0.09164496     0.73940
O1317       O  0.17352396  0.63564752  0.06681265    -0.39510
O1318       O  0.12143395  0.58789427  0.09369181    -0.39460
O1319       O  0.04987825  0.74703174  0.09529113    -0.40160
O1320       O  0.00249282  0.68207702  0.08673320    -0.40230
C1321       C  0.37132220  0.97126529  0.08298827    -0.12510
C1322       C  0.37078414  0.94939258  0.05663466     0.04500
C1323       C  0.33740804  0.90648751  0.05459051    -0.07800
C1324       C  0.30406591  0.88938590  0.07631376    -0.08540
C1325       C  0.30274496  0.91345987  0.10056056    -0.03090
C1326       C  0.33781906  0.95339044  0.10478232     0.03730
N1327       N  0.34181987  0.97182082  0.13346151     0.66230
H1328       H  0.39906336  0.00086345  0.08727773     0.15130
H1329       H  0.27945631  0.85679009  0.07485643     0.14840
N1330       N  0.33945247  0.87817914  0.03261671     0.73940
O1331       O  0.35998450  0.96127857  0.15219030    -0.39510
O1332       O  0.31386103  0.98149996  0.14288292    -0.39460
O1333       O  0.35271147  0.85246598  0.03938977    -0.40160
O1334       O  0.33503629  0.88346387  0.00587048    -0.40230
C1335       C  0.40734661  0.54535318  0.42891257    -0.12510
C1336       C  0.44181448  0.57351146  0.44529272     0.04500
C1337       C  0.46589534  0.61626297  0.43473142    -0.07800
C1338       C  0.45149833  0.62910052  0.41007375    -0.08540
C1339       C  0.41662783  0.60048731  0.39374632    -0.03090
C1340       C  0.39290898  0.55838126  0.40469249     0.03730
N1341       N  0.35256490  0.52876135  0.39349058     0.66230
H1342       H  0.39044665  0.51228385  0.43578620     0.15130
H1343       H  0.46898728  0.66185154  0.40258511     0.14840
N1344       N  0.50688753  0.64605228  0.44574817     0.73940
O1345       O  0.33943077  0.98964574  0.39797152    -0.39510
O1346       O  0.32536299  0.54074050  0.38891961    -0.39460
O1347       O  0.02660848  0.63463858  0.46272231    -0.40160
O1348       O  0.52704848  0.68255193  0.43423086    -0.40230
C1349       C  0.22630430  0.58729203  0.42521329    -0.12510
C1350       C  0.21455764  0.58871827  0.39627070     0.04500
C1351       C  0.17120292  0.57408986  0.39115271    -0.07800
C1352       C  0.14080278  0.55586243  0.41476960    -0.08540
C1353       C  0.15192803  0.55211143  0.44362709    -0.03090
C1354       C  0.19602088  0.57094564  0.44906038     0.03730
N1355       N  0.21089032  0.57533842  0.47843412     0.66230
H1356       H  0.25972936  0.59970485  0.42926549     0.15130
H1357       H  0.10776615  0.54234635  0.41023407     0.14840
N1358       N  0.15726417  0.57506623  0.36195381     0.73940
O1359       O  0.24896485  0.58460488  0.48260372    -0.39510
O1360       O  0.18875931  0.57783793  0.49980287    -0.39460
O1361       O  0.17774803  0.57301512  0.33934949    -0.40160
O1362       O  0.12337880  0.57668333  0.35848812    -0.40230
C1363       C  0.47162786  0.84195986  0.42426682    -0.12510
C1364       C  0.44797613  0.86108433  0.43639767     0.04500
C1365       C  0.40826173  0.84955484  0.42317991    -0.07800
C1366       C  0.39480319  0.82106549  0.39866593    -0.08540
C1367       C  0.41815531  0.80103584  0.38759967    -0.03090
C1368       C  0.45645088  0.81121374  0.40153537     0.03730
N1369       N  0.48153769  0.79168898  0.39191588     0.66230
H1370       H  0.50286656  0.85128844  0.43197305     0.15130
H1371       H  0.36503212  0.81353217  0.38875250     0.14840
N1372       N  0.38114032  0.86664887  0.43374029     0.73940
O1373       O  0.99129596  0.79184227  0.36506943    -0.39510
O1374       O  0.49477412  0.77500213  0.41026037    -0.39460
O1375       O  0.39496864  0.90649821  0.43468944    -0.40160
O1376       O  0.34164461  0.84231559  0.43677768    -0.40230
C1377       C  0.29718343  0.01821321  0.25955285    -0.12510
C1378       C  0.26809914  0.53215387  0.26970749     0.04500
C1379       C  0.23184341  0.52004689  0.25264014    -0.07800
C1380       C  0.22432222  0.49227525  0.22819098    -0.08540
C1381       C  0.25302446  0.97748711  0.21866618    -0.03090
C1382       C  0.28948541  0.99044845  0.23522854     0.03730
N1383       N  0.31997895  0.97701158  0.22678774     0.66230
H1384       H  0.32712864  0.03018656  0.27028274     0.15130
H1385       H  0.19534533  0.48155169  0.21655542     0.14840
N1386       N  0.20273273  0.53615600  0.25924047     0.73940
O1387       O  0.33975111  0.98944744  0.20245498    -0.39510
O1388       O  0.31905023  0.94519917  0.23930095    -0.39460
O1389       O  0.21477451  0.57544371  0.25585406    -0.40160
O1390       O  0.16355776  0.51054000  0.26194538    -0.40230
C1391       C  0.48764091  0.77155239  0.25618652    -0.12510
C1392       C  0.48477530  0.74694058  0.28096455     0.04500
C1393       C  0.01360630  0.73021895  0.28168630    -0.07800
C1394       C  0.04270175  0.73654814  0.25830585    -0.08540
C1395       C  0.04593428  0.76101314  0.23355318    -0.03090
C1396       C  0.01931955  0.78072536  0.23344915     0.03730
N1397       N  0.02601717  0.81252257  0.21189700     0.66230
H1398       H  0.46651629  0.78533806  0.25508894     0.15130
H1399       H  0.06341942  0.72232154  0.25987596     0.14840
N1400       N  0.01277904  0.70499193  0.30580539     0.73940
O1401       O  0.52751518  0.80500152  0.18490567    -0.39510
O1402       O  0.03312126  0.84944154  0.21968688    -0.39460
O1403       O  0.98502793  0.66620466  0.30711483    -0.40160
O1404       O  0.03253329  0.72353640  0.32845178    -0.40230
C1405       C  0.24191024  0.69394118  0.24753597    -0.12510
C1406       C  0.26488904  0.72014141  0.27077717     0.04500
C1407       C  0.27988355  0.76476653  0.26819540    -0.07800
C1408       C  0.26868845  0.78078136  0.24357999    -0.08540
C1409       C  0.24399583  0.75381084  0.22098261    -0.03090
C1410       C  0.23268540  0.71015140  0.22242867     0.03730
N1411       N  0.21617811  0.68235658  0.19767931     0.66230
H1412       H  0.23259425  0.66020847  0.24823488     0.15130
H1413       H  0.27811189  0.81450087  0.24258494     0.14840
N1414       N  0.30502952  0.79406592  0.29048514     0.73940
O1415       O  0.22381938  0.65132744  0.19488648    -0.39510
O1416       O  0.20084936  0.69215433  0.17643906    -0.39460
O1417       O  0.33161447  0.83203540  0.28371675    -0.40160
O1418       O  0.29782235  0.78362972  0.31728410    -0.40230
C1419       C  0.33537750  0.69923461  0.46856667    -0.12510
C1420       C  0.34042844  0.67120840  0.48710291     0.04500
C1421       C  0.35728079  0.64485639  0.47635547    -0.07800
C1422       C  0.36717568  0.64662168  0.44654767    -0.08540
C1423       C  0.35797764  0.67131063  0.42754084    -0.03090
C1424       C  0.34138653  0.69787065  0.43830699     0.03730
N1425       N  0.32690654  0.72018432  0.41946508     0.66230
H1426       H  0.32430377  0.72054107  0.47775209     0.15130
H1427       H  0.37884271  0.62572239  0.43757980     0.14840
N1428       N  0.36215922  0.61462388  0.99443505     0.73940
O1429       O  0.32007220  0.74953193  0.42989163    -0.39510
O1430       O  0.31405188  0.70629336  0.39413782    -0.39460
O1431       O  0.34850129  0.60792356  0.02073684    -0.40160
O1432       O  0.38021846  0.59402739  0.98408549    -0.40230
C1433       C  0.33830035  0.63139590  0.19731329    -0.12510
C1434       C  0.32649672  0.65790529  0.18247082     0.04500
C1435       C  0.33136591  0.69627942  0.19567265    -0.07800
C1436       C  0.34810807  0.70681995  0.22361400    -0.08540
C1437       C  0.35876988  0.67967015  0.23873382    -0.03090
C1438       C  0.35509970  0.64203342  0.22526818     0.03730
N1439       N  0.36763292  0.61417483  0.23975766     0.66230
H1440       H  0.33730667  0.60385777  0.18606286     0.15130
H1441       H  0.34934578  0.73453489  0.23478771     0.14840
N1442       N  0.32047076  0.72515558  0.18079572     0.73940
O1443       O  0.36712974  0.58279739  0.22611101    -0.39510
O1444       O  0.38285364  0.62262047  0.26505295    -0.39460
O1445       O  0.29757377  0.71327051  0.15857513    -0.40160
O1446       O  0.33148516  0.76204408  0.19098010    -0.40230
C1447       C  0.42011287  0.55725730  0.16385963    -0.12510
C1448       C  0.43849301  0.57608673  0.19087570     0.04500
C1449       C  0.45067528  0.62046989  0.19392611    -0.07800
C1450       C  0.44030640  0.64222660  0.17220824    -0.08540
C1451       C  0.41909843  0.62171643  0.14656944    -0.03090
C1452       C  0.41013104  0.57933463  0.14219246     0.03730
N1453       N  0.39327406  0.56022320  0.11449383     0.66230
H1454       H  0.41637962  0.52622384  0.15900974     0.15130
H1455       H  0.44827780  0.67532876  0.17570869     0.14840
N1456       N  0.47230127  0.64401610  0.21925864     0.73940
O1457       O  0.41706615  0.57461022  0.09188806    -0.39510
O1458       O  0.35407220  0.54551281  0.11102776    -0.39460
O1459       O  0.50818570  0.64780195  0.22475287    -0.40160
O1460       O  0.46089527  0.66913354  0.23152449    -0.40230
C1461       C  0.16767260  0.54428853  0.18901729    -0.12510
C1462       C  0.13683308  0.55784116  0.19327153     0.04500
C1463       C  0.13836233  0.58920071  0.17374635    -0.07800
C1464       C  0.16934613  0.60462073  0.15030808    -0.08540
C1465       C  0.20015706  0.59078089  0.14601785    -0.03090
C1466       C  0.19825006  0.55942608  0.16561959     0.03730
N1467       N  0.22438310  0.53951661  0.16048044     0.66230
H1468       H  0.16548762  0.51886130  0.20261887     0.15130
H1469       H  0.17069921  0.62940501  0.13625906     0.14840
N1470       N  0.10893428  0.60578280  0.17719689     0.73940
O1471       O  0.25522929  0.04827941  0.17667714    -0.39510
O1472       O  0.21866155  0.51570235  0.13838979    -0.39460
O1473       O  0.10423215  0.62028355  0.20174097    -0.40160
O1474       O  0.09361694  0.61305158  0.15484365    -0.40230
C1475       C  0.39413472  0.83420305  0.14525663    -0.12510
C1476       C  0.40979508  0.80522591  0.14177100     0.04500
C1477       C  0.43269603  0.80135981  0.16558985    -0.07800
C1478       C  0.44264122  0.82929562  0.18999520    -0.08540
C1479       C  0.43041439  0.86119674  0.19213527    -0.03090
C1480       C  0.40360698  0.86163765  0.16993063     0.03730
N1481       N  0.38700977  0.89095961  0.17069996     0.66230
H1482       H  0.37439676  0.83581075  0.12840014     0.15130
H1483       H  0.45996618  0.82594715  0.20764815     0.14840
N1484       N  0.44456313  0.76811491  0.16626347     0.73940
O1485       O  0.38292390  0.90556282  0.14671213    -0.39510
O1486       O  0.36823198  0.89481554  0.19365451    -0.39460
O1487       O  0.47119877  0.76760190  0.14748429    -0.40160
O1488       O  0.43480667  0.74435680  0.18860077    -0.40230
C1489       C  0.20961178  0.98771017  0.49864711    -0.12510
C1490       C  0.24120877  0.98182404  0.48331351     0.04500
C1491       C  0.28127505  0.99822438  0.49665295    -0.07800
C1492       C  0.28870471  0.51998628  0.02374702    -0.08540
C1493       C  0.25803458  0.52809857  0.03809956    -0.03090
C1494       C  0.21731814  0.50998987  0.02589804     0.03730
N1495       N  0.18292683  0.51264719  0.04116857     0.66230
H1496       H  0.17808535  0.97323037  0.48991382     0.15130
H1497       H  0.31967700  0.53225751  0.03311905     0.14840
N1498       N  0.31571589  0.99505050  0.48213295     0.73940
O1499       O  0.14969526  0.50363089  0.02774496    -0.39510
O1500       O  0.18339090  0.51917247  0.06852317    -0.39460
O1501       O  0.32301232  0.50391357  0.45514780    -0.40160
O1502       O  0.34253832  0.99034788  0.49666063    -0.40230
C1503       C  0.47993103  0.78490837  0.99891673    -0.12510
C1504       C  0.46479259  0.74707802  0.01552060     0.04500
C1505       C  0.48161699  0.71886650  0.00738584    -0.07800
C1506       C  0.01472423  0.73208476  0.48540103    -0.08540
C1507       C  0.03317053  0.77242027  0.47174890    -0.03090
C1508       C  0.01729345  0.80042365  0.98073042     0.03730
N1509       N  0.04256690  0.84600637  0.97693358     0.66230
H1510       H  0.46638211  0.80585779  0.00347431     0.15130
H1511       H  0.02911608  0.71202540  0.48102544     0.14840
N1512       N  0.46755860  0.67767966  0.52096748     0.73940
O1513       O  0.02559371  0.86925238  0.98240342    -0.39510
O1514       O  0.08237894  0.86340935  0.47809397    -0.39460
O1515       O  0.43024923  0.65620287  0.53114920    -0.40160
O1516       O  0.48984740  0.65905210  0.01797541    -0.40230
C1517       C  0.26286517  0.78590896  0.03007968    -0.12510
C1518       C  0.26747506  0.75021588  0.02345053     0.04500
C1519       C  0.25389657  0.73088577  0.49558125    -0.07800
C1520       C  0.24547968  0.75290380  0.47336560    -0.08540
C1521       C  0.24415189  0.79109585  0.47928628    -0.03090
C1522       C  0.24962791  0.80533719  0.00906900     0.03730
N1523       N  0.23748125  0.83600053  0.01966426     0.66230
H1524       H  0.26853706  0.79798346  0.05225066     0.15130
H1525       H  0.23641686  0.73824707  0.45196526     0.14840
N1526       N  0.24102927  0.68652311  0.49130145     0.73940
O1527       O  0.21405544  0.82723534  0.04265493    -0.39510
O1528       O  0.25837613  0.87437951  0.51140490    -0.39460
O1529       O  0.21862787  0.66062177  0.51127165    -0.40160
O1530       O  0.24134644  0.67231168  0.46575188    -0.40230
O1531       O  0.29215043  0.66529221  0.52485139    -0.80380
O1532       O  0.42554711  0.68140694  0.61740516    -0.80400
O1533       O  0.41478731  0.76394682  0.54215290    -0.80410
O1534       O  0.29669212  0.56538609  0.58158454    -0.80350
O1535       O  0.42173887  0.71018426  0.56038311    -0.80470
O1536       O  0.26336688  0.59343500  0.55738077    -0.80390
O1537       O  0.36466494  0.62106707  0.61567397    -0.80380
O1538       O  0.35591041  0.68225596  0.53608681    -0.80420
C1539       C  0.32850746  0.67160697  0.01746926     1.09310
C1540       C  0.40319885  0.64261018  0.62510390     1.09200
C1541       C  0.43353944  0.74095235  0.54107696     1.09330
C1542       C  0.27205890  0.56259153  0.56117994     1.09210
O1543       O  0.23256980  0.63453979  0.60273741    -0.80380
O1544       O  0.41491250  0.75206149  0.61258860    -0.80460
O1545       O  0.32686936  0.74496548  0.54165117    -0.80390
O1546       O  0.30689180  0.62245290  0.63547366    -0.80370
O1547       O  0.35893821  0.68808404  0.63901049    -0.80420
O1548       O  0.26476732  0.70735607  0.56491994    -0.80390
O1549       O  0.26657796  0.60286115  0.62103428    -0.80350
O1550       O  0.37260021  0.77267218  0.59573347    -0.80420
Co1551     Co  0.26768404  0.65291067  0.56524602     1.51530
Co1552     Co  0.38369753  0.69272414  0.59983465     1.51690
Co1553     Co  0.36411115  0.72760730  0.56467311     1.51570
Co1554     Co  0.31741529  0.62492456  0.59112706     1.51470
O1555       O  0.32498956  0.68394656  0.58909627    -1.42310
C1556       C  0.23429016  0.60985254  0.62178820     1.09240
C1557       C  0.39872063  0.77626800  0.61520301     1.09330
C1558       C  0.28745297  0.73447496  0.54520571     1.09270
C1559       C  0.32916908  0.65586686  0.65085161     1.09240
O1560       O  0.31634972  0.64923652  0.77886732    -0.80380
O1561       O  0.42154389  0.65658335  0.86318531    -0.80400
O1562       O  0.41216515  0.72867691  0.79996715    -0.80410
O1563       O  0.30500468  0.55934822  0.81495743    -0.80350
O1564       O  0.45702188  0.72624134  0.83064005    -0.80470
O1565       O  0.25892790  0.58162985  0.80394045    -0.80390
O1566       O  0.37770761  0.59328650  0.84910201    -0.80380
O1567       O  0.37568543  0.70908818  0.78744667    -0.80420
C1568       C  0.35113005  0.67922028  0.76996416     1.09310
C1569       C  0.40579781  0.61693517  0.86671936     1.09200
C1570       C  0.45081430  0.73575852  0.80522197     1.09330
C1571       C  0.27739096  0.55893963  0.79769770     1.09210
O1572       O  0.25950924  0.63525189  0.85681633    -0.80380
O1573       O  0.40170720  0.73053470  0.86795893    -0.80460
O1574       O  0.31521823  0.71882892  0.80482474    -0.80390
O1575       O  0.33622804  0.62201640  0.89060462    -0.80370
O1576       O  0.38372916  0.69115456  0.87871123    -0.80420
O1577       O  0.25241505  0.65998982  0.80022819    -0.80390
O1578       O  0.26081846  0.57533471  0.86410876    -0.80350
O1579       O  0.38487610  0.77001555  0.84031906    -0.80420
Co1580     Co  0.28987335  0.64367587  0.81729154     1.51530
Co1581     Co  0.39901056  0.68430299  0.83663268     1.51690
Co1582     Co  0.35802981  0.70879053  0.83043509     1.51570
Co1583     Co  0.32081923  0.58975719  0.85372619     1.51470
O1584       O  0.33801185  0.64446761  0.83251180    -1.42310
C1585       C  0.24732260  0.60120861  0.87161166     1.09240
C1586       C  0.40129324  0.76664017  0.86387498     1.09330
C1587       C  0.27721339  0.69931237  0.79421453     1.09270
C1588       C  0.35890516  0.66136068  0.89699681     1.09240
O1589       O  0.24573628  0.79797223  0.68041011    -0.80380
O1590       O  0.15467945  0.82840767  0.61340128    -0.80400
O1591       O  0.13761925  0.73701363  0.65509275    -0.80410
O1592       O  0.24207215  0.90702855  0.63041423    -0.80350
O1593       O  0.09891500  0.76025513  0.63515509    -0.80470
O1594       O  0.27388154  0.86965984  0.64278418    -0.80390
O1595       O  0.19820815  0.89571614  0.61935461    -0.80380
O1596       O  0.18537833  0.76169806  0.70629682    -0.80420
C1597       C  0.22379366  0.77042178  0.70027931     1.09310
C1598       C  0.17496882  0.86483509  0.60265058     1.09200
C1599       C  0.11312777  0.73390405  0.63463787     1.09330
C1600       C  0.27026275  0.89465190  0.62520573     1.09210
O1601       O  0.25221186  0.91490598  0.69421793    -0.80380
O1602       O  0.09330851  0.79981979  0.69184203    -0.80460
O1603       O  0.15938496  0.82503080  0.71743246    -0.80390
O1604       O  0.14643829  0.89606721  0.64492076    -0.80370
O1605       O  0.08828650  0.83438994  0.63814793    -0.80420
O1606       O  0.22536050  0.84143251  0.72189688    -0.80390
O1607       O  0.21620761  0.94392433  0.67463131    -0.80350
O1608       O  0.09770466  0.74416891  0.70928897    -0.80420
Co1609     Co  0.24544289  0.85399970  0.68204017     1.51530
Co1610     Co  0.12936919  0.81890398  0.65216850     1.51690
Co1611     Co  0.14807663  0.78125203  0.68670259     1.51570
Co1612     Co  0.19485519  0.88588823  0.66329322     1.51470
O1613       O  0.18627182  0.82574252  0.66172298    -1.42310
C1614       C  0.24155091  0.94522997  0.69375237     1.09240
C1615       C  0.07935381  0.76751432  0.70985872     1.09330
C1616       C  0.19316919  0.84337728  0.73089766     1.09270
C1617       C  0.10805450  0.87493096  0.63524543     1.09240
O1618       O  0.23438962  0.84794932  0.95912461    -0.80380
O1619       O  0.14030286  0.82658965  0.85881975    -0.80400
O1620       O  0.13849357  0.74910261  0.89687425    -0.80410
O1621       O  0.23986175  0.93255494  0.88935540    -0.80350
O1622       O  0.08554151  0.76115480  0.88652000    -0.80470
O1623       O  0.25587523  0.88494579  0.90227678    -0.80390
O1624       O  0.17291751  0.89578343  0.86018100    -0.80380
O1625       O  0.20715053  0.78828863  0.93506743    -0.80420
C1626       C  0.22962199  0.81056814  0.95594559     1.09310
C1627       C  0.16249072  0.86173186  0.84685241     1.09200
C1628       C  0.10594646  0.74007078  0.88194660     1.09330
C1629       C  0.26176064  0.91399032  0.88431137     1.09210
O1630       O  0.25099140  0.93109225  0.95312221    -0.80380
O1631       O  0.08328009  0.81912645  0.93472889    -0.80460
O1632       O  0.15458599  0.80520679  0.97580012    -0.80390
O1633       O  0.11525889  0.89068923  0.90364193    -0.80370
O1634       O  0.07263172  0.83433947  0.87809306    -0.80420
O1635       O  0.16889295  0.87011777  0.96439030    -0.80390
O1636       O  0.19519979  0.93874638  0.94267643    -0.80350
O1637       O  0.08572290  0.76096591  0.94334471    -0.80420
Co1638     Co  0.21279486  0.87909780  0.93399616     1.51530
Co1639     Co  0.11389759  0.82481494  0.89649421     1.51690
Co1640     Co  0.14821377  0.78016627  0.93559835     1.51570
Co1641     Co  0.17838639  0.90522447  0.90204217     1.51470
O1642       O  0.16760970  0.83772689  0.91247546    -1.42310
C1643       C  0.22966441  0.95089373  0.95757223     1.09240
C1644       C  0.06935934  0.78501219  0.94917985     1.09330
C1645       C  0.15757406  0.84098210  0.48288055     1.09270
C1646       C  0.08931741  0.87454448  0.88196718     1.09240
O1647       O  0.44324081  0.90178294  0.97901960    -0.80380
O1648       O  0.02633955  0.52269451  0.55753983    -0.80400
O1649       O  0.04582984  0.94046115  0.01771376    -0.80410
O1650       O  0.43520925  0.00881447  0.53234012    -0.80350
O1651       O  0.07736682  0.99930884  0.54289334    -0.80470
O1652       O  0.40963925  0.94431569  0.51388839    -0.80390
O1653       O  0.47283376  0.53314931  0.54643825    -0.80380
O1654       O  0.50710092  0.92200756  0.95951304    -0.80420
C1655       C  0.46703742  0.89537746  0.96035321     1.09310
C1656       C  0.99421140  0.52611412  0.56516248     1.09200
C1657       C  0.06384477  0.95916107  0.54133531     1.09330
C1658       C  0.40649555  0.96875073  0.53295963     1.09210
O1659       O  0.44581842  0.51541840  0.96845724    -0.80380
O1660       O  0.10147490  0.54716322  0.98373963    -0.80460
O1661       O  0.04035340  0.01175698  0.95261917    -0.80390
O1662       O  0.03761464  0.59119528  0.52798437    -0.80370
O1663       O  0.09634179  0.58658100  0.53585190    -0.80420
O1664       O  0.47578503  0.96925463  0.94037731    -0.80390
O1665       O  0.47090655  0.57581448  0.99321531    -0.80350
O1666       O  0.09668801  0.48641753  0.96612349    -0.80420
Co1667     Co  0.44727286  0.95959051  0.97848007     1.51530
Co1668     Co  0.05671653  0.53307261  0.51979734     1.51690
Co1669     Co  0.04272260  0.97613019  0.98428240     1.51570
Co1670     Co  0.49109918  0.53730328  0.50459181     1.51470
O1671       O  0.00084500  0.48549630  0.00554483    -1.42310
C1672       C  0.45272263  0.55445372  0.97070957     1.09240
C1673       C  0.11661343  0.52734597  0.96659693     1.09330
C1674       C  0.51348948  0.99428015  0.93362608     1.09270
C1675       C  0.07509437  0.60670110  0.53946004     1.09240
O1676       O  0.42830032  0.90447354  0.73348116    -0.80380
O1677       O  0.00394043  0.47701341  0.79748894    -0.80400
O1678       O  0.04155096  0.95140355  0.76431864    -0.80410
O1679       O  0.41916267  0.01664934  0.78227995    -0.80350
O1680       O  0.08678413  0.01124074  0.78496638    -0.80470
O1681       O  0.39602997  0.94854296  0.77092171    -0.80390
O1682       O  0.48172361  0.52101722  0.80919013    -0.80380
O1683       O  0.49065676  0.92384811  0.71090072    -0.80420
C1684       C  0.45094856  0.89710153  0.71429896     1.09310
C1685       C  0.99331062  0.49461855  0.81653071     1.09200
C1686       C  0.07053123  0.97061533  0.78374781     1.09330
C1687       C  0.39447080  0.97667145  0.78796817     1.09210
O1688       O  0.41680518  0.51072351  0.72067864    -0.80380
O1689       O  0.08256307  0.54895059  0.73190719    -0.80460
O1690       O  0.01863335  0.01072933  0.69759939    -0.80390
O1691       O  0.00246746  0.59463980  0.78576096    -0.80370
O1692       O  0.05289778  0.57365921  0.78915998    -0.80420
O1693       O  0.45053109  0.96676729  0.69092187    -0.80390
O1694       O  0.47851700  0.56520817  0.72940905    -0.80350
O1695       O  0.07975145  0.49131182  0.71123456    -0.80420
Co1696     Co  0.42534631  0.95888862  0.73067251     1.51530
Co1697     Co  0.04015414  0.51422922  0.76642170     1.51690
Co1698     Co  0.02695341  0.98164452  0.73055190     1.51570
Co1699     Co  0.48183197  0.54096621  0.76824548     1.51470
O1700       O  0.98163849  0.49191806  0.75007650    -1.42310
C1701       C  0.44503773  0.54932286  0.71473569     1.09240
C1702       C  0.09899426  0.53197336  0.71348770     1.09330
C1703       C  0.48733235  0.99263800  0.68157547     1.09270
C1704       C  0.03774324  0.60047338  0.79564342     1.09240
C1705       C  0.01204564  0.95928728  0.88835003    -0.12510
C1706       C  0.02533174  0.99801463  0.90340439     0.04500
C1707       C  0.53757640  0.53626992  0.88856785    -0.07800
C1708       C  0.52955391  0.53332461  0.85901840    -0.08540
C1709       C  0.00608144  0.49355168  0.84570208    -0.03090
C1710       C  0.00076911  0.95593068  0.85925817     0.03730
N1711       N  0.98121336  0.91435870  0.84537071     0.66230
H1712       H  0.00497634  0.93059460  0.90040044     0.15130
H1713       H  0.53960762  0.56214715  0.84671532     0.14840
N1714       N  0.55580244  0.57731649  0.90304320     0.73940
O1715       O  0.98565039  0.88426849  0.85597884    -0.39510
O1716       O  0.95559395  0.90578159  0.82490467    -0.39460
O1717       O  0.58160578  0.61061644  0.88926189    -0.40160
O1718       O  0.54441265  0.58116787  0.92894583    -0.40230
C1719       C  0.97202874  0.97638573  0.60310000    -0.12510
C1720       C  0.98049912  0.51731073  0.59492135     0.04500
C1721       C  0.49360669  0.55105532  0.61532631    -0.07800
C1722       C  0.49869149  0.54257713  0.64395958    -0.08540
C1723       C  0.99265942  0.00242739  0.65140595    -0.03090
C1724       C  0.98227048  0.96969382  0.63067277     0.03730
N1725       N  0.98740008  0.93263983  0.63607848     0.66230
H1726       H  0.96453444  0.95188996  0.58641853     0.15130
H1727       H  0.50666232  0.56691820  0.66074566     0.14840
N1728       N  0.50265364  0.59356448  0.60742284     0.73940
O1729       O  0.97363350  0.90195549  0.61809570    -0.39510
O1730       O  0.01410028  0.93490304  0.65424004    -0.39460
O1731       O  0.49543570  0.60143201  0.58203951    -0.40160
O1732       O  0.01406329  0.62260895  0.62659103    -0.40230
C1733       C  0.06248064  0.87955388  0.83302805    -0.12510
C1734       C  0.08373607  0.90077072  0.85836238     0.04500
C1735       C  0.10301423  0.94575214  0.85815148    -0.07800
C1736       C  0.09957443  0.96779620  0.83351773    -0.08540
C1737       C  0.07759552  0.94621463  0.80819223    -0.03090
C1738       C  0.05926110  0.90121237  0.80852274     0.03730
N1739       N  0.04025373  0.87626358  0.78334666     0.66230
H1740       H  0.04916734  0.84524463  0.83140398     0.15130
H1741       H  0.11325948  0.00199943  0.83449825     0.14840
N1742       N  0.12678789  0.96948817  0.88254325     0.73940
O1743       O  0.05426954  0.85166830  0.77404647    -0.39510
O1744       O  0.00311944  0.86824110  0.77721842    -0.39460
O1745       O  0.16679559  0.98920185  0.88017258    -0.40160
O1746       O  0.10879549  0.46340733  0.90766081    -0.40230
C1747       C  0.05082793  0.66796244  0.86475561    -0.12510
C1748       C  0.09066766  0.70366674  0.86006937     0.04500
C1749       C  0.11398668  0.70418364  0.83402254    -0.07800
C1750       C  0.09761935  0.66960602  0.81398755    -0.08540
C1751       C  0.05712255  0.63468011  0.81847348    -0.03090
C1752       C  0.03347903  0.63417385  0.84442939     0.03730
N1753       N  0.99260737  0.59860787  0.85153610     0.66230
H1754       H  0.03224676  0.66668756  0.88403998     0.15130
H1755       H  0.11549573  0.67154537  0.79380391     0.14840
N1756       N  0.15049919  0.74230939  0.82480647     0.73940
O1757       O  0.98556114  0.58159570  0.87659094    -0.39510
O1758       O  0.46201393  0.58754972  0.83464562    -0.39460
O1759       O  0.18570251  0.74238873  0.82176194    -0.40160
O1760       O  0.14443997  0.76866893  0.81032866    -0.40230
C1761       C  0.32271542  0.96149996  0.81032632    -0.12510
C1762       C  0.36139486  0.96158493  0.81356061     0.04500
C1763       C  0.36544698  0.94384295  0.84034440    -0.07800
C1764       C  0.33056783  0.92348737  0.86059848    -0.08540
C1765       C  0.29404273  0.92808633  0.85870213    -0.03090
C1766       C  0.29110979  0.94909789  0.83316334     0.03730
N1767       N  0.25688512  0.95867591  0.82966085     0.66230
H1768       H  0.31759511  0.97241344  0.79018895     0.15130
H1769       H  0.33475741  0.90992774  0.88054509     0.14840
N1770       N  0.40598943  0.95522255  0.85134560     0.73940
O1771       O  0.25220855  0.98378404  0.84746545    -0.39510
O1772       O  0.24017458  0.95280955  0.80499053    -0.39460
O1773       O  0.42820704  0.49382899  0.85838995    -0.40160
O1774       O  0.41025171  0.92735699  0.86544805    -0.40230
C1775       C  0.21835219  0.85501428  0.77954456    -0.12510
C1776       C  0.19405651  0.86184312  0.75900876     0.04500
C1777       C  0.16618635  0.87805418  0.76749715    -0.07800
C1778       C  0.15689575  0.87799681  0.79727743    -0.08540
C1779       C  0.17581113  0.86369337  0.81733316    -0.03090
C1780       C  0.20893868  0.85472862  0.80910886     0.03730
N1781       N  0.23128949  0.84271003  0.82963076     0.66230
H1782       H  0.24125372  0.84465518  0.77261091     0.15130
H1783       H  0.13443613  0.88846278  0.80497329     0.14840
N1784       N  0.14828026  0.89548599  0.74714716     0.73940
O1785       O  0.26707066  0.84603781  0.82226346    -0.39510
O1786       O  0.21441469  0.82542442  0.85398005    -0.39460
O1787       O  0.15255444  0.89285537  0.71971149    -0.40160
O1788       O  0.13237505  0.91845321  0.75667600    -0.40230
C1789       C  0.18857439  0.89089910  0.52323580    -0.12510
C1790       C  0.15527822  0.85212948  0.51330701     0.04500
C1791       C  0.12431826  0.82429612  0.53332957    -0.07800
C1792       C  0.12807652  0.83591079  0.56246115    -0.08540
C1793       C  0.16579396  0.86945123  0.57267275    -0.03090
C1794       C  0.19491199  0.89956841  0.55309197     0.03730
N1795       N  0.23336363  0.93473412  0.56284278     0.66230
H1796       H  0.21333085  0.91106876  0.50811739     0.15130
H1797       H  0.10425139  0.81439791  0.57784176     0.14840
N1798       N  0.09168752  0.78259717  0.52575318     0.73940
O1799       O  0.26856050  0.94188628  0.55107909    -0.39510
O1800       O  0.23221147  0.95984619  0.58232488    -0.39460
O1801       O  0.10186594  0.75569064  0.51502725    -0.40160
O1802       O  0.05587030  0.76873865  0.53869376    -0.40230
C1803       C  0.09165326  0.95950089  0.59232569    -0.12510
C1804       C  0.07082763  0.93624198  0.56723273     0.04500
C1805       C  0.05620280  0.89183216  0.56858487    -0.07800
C1806       C  0.06625627  0.87299168  0.59198238    -0.08540
C1807       C  0.09041233  0.89661332  0.61556897    -0.03090
C1808       C  0.10002079  0.94027993  0.61683724     0.03730
N1809       N  0.11256158  0.96434674  0.64361570     0.66230
H1810       H  0.10077862  0.49319764  0.59320771     0.15130
H1811       H  0.05531320  0.83892846  0.59129799     0.14840
N1812       N  0.03113289  0.86437373  0.54631728     0.73940
O1813       O  0.10825200  0.49741992  0.64612733    -0.39510
O1814       O  0.11817701  0.94845233  0.66651623    -0.39460
O1815       O  0.03977126  0.83562662  0.53752819    -0.40160
O1816       O  0.99441994  0.85988185  0.54300057    -0.40230
C1817       C  0.12705914  0.68025719  0.60563608    -0.12510
C1818       C  0.10351436  0.70259675  0.60922939     0.04500
C1819       C  0.07311301  0.69570140  0.58737942    -0.07680
C1820       C  0.06967457  0.66940489  0.56274491    -0.08540
C1821       C  0.09022614  0.64425083  0.56071161    -0.03090
C1822       C  0.11962888  0.65050320  0.58265939     0.03730
N1823       N  0.14065077  0.62507636  0.58292007     0.66230
H1824       H  0.15055359  0.68468122  0.62151763     0.15130
H1825       H  0.04692802  0.66498543  0.54650820     0.14840
N1826       N  0.04061817  0.70850055  0.59164977     0.73940
O1827       O  0.17354076  0.63566600  0.56681224    -0.39510
O1828       O  0.12144399  0.58789608  0.59367746    -0.39460
O1829       O  0.04990213  0.74704878  0.59527349    -0.40160
O1830       O  0.00249975  0.68208608  0.58675608    -0.40230
C1831       C  0.37134951  0.97127223  0.58299896    -0.12510
C1832       C  0.37081104  0.94939588  0.55664765     0.04500
C1833       C  0.33744029  0.90648671  0.55461017    -0.07800
C1834       C  0.30409953  0.88938789  0.57633516    -0.08540
C1835       C  0.30277538  0.91346870  0.60057727    -0.03090
C1836       C  0.33784774  0.95340160  0.60479450     0.03730
N1837       N  0.34184552  0.97184368  0.63346966     0.66230
H1838       H  0.39909113  0.00087060  0.58728437     0.15130
H1839       H  0.27949386  0.85678917  0.57488292     0.14840
N1840       N  0.33949135  0.87817183  0.53264430     0.73940
O1841       O  0.35999357  0.96129738  0.65220906    -0.39510
O1842       O  0.31389700  0.98154600  0.64287726    -0.39460
O1843       O  0.35274362  0.85245742  0.53942830    -0.40160
O1844       O  0.33507359  0.88344101  0.50589564    -0.40230
C1845       C  0.40734157  0.54534869  0.92891645    -0.12510
C1846       C  0.44181394  0.57350413  0.94529394     0.04500
C1847       C  0.46589586  0.61625646  0.93473342    -0.07800
C1848       C  0.45149745  0.62909609  0.91007734    -0.08540
C1849       C  0.41662557  0.60048413  0.89375022    -0.03090
C1850       C  0.39290394  0.55837861  0.90469733     0.03730
N1851       N  0.35255681  0.52876145  0.89349796     0.66230
H1852       H  0.39043836  0.51228010  0.93579148     0.15130
H1853       H  0.46898670  0.66184733  0.90258929     0.14840
N1854       N  0.50688972  0.64604447  0.94574929     0.73940
O1855       O  0.33942615  0.98966757  0.89796470    -0.39510
O1856       O  0.32535883  0.54074543  0.88892619    -0.39460
O1857       O  0.02660586  0.63464265  0.96272369    -0.40160
O1858       O  0.52705282  0.68254412  0.93423205    -0.40230
C1859       C  0.22630061  0.58728529  0.92522406    -0.12510
C1860       C  0.21455419  0.58871102  0.89628109     0.04500
C1861       C  0.17119917  0.57408254  0.89116398    -0.07800
C1862       C  0.14079910  0.55585499  0.91478116    -0.08540
C1863       C  0.15192368  0.55210427  0.94363900    -0.03090
C1864       C  0.19601701  0.57093988  0.94907173     0.03730
N1865       N  0.21088689  0.57533622  0.97844552     0.66230
H1866       H  0.25972577  0.59969877  0.92927628     0.15130
H1867       H  0.10776290  0.54234044  0.91024562     0.14840
N1868       N  0.15725985  0.57506053  0.86196569     0.73940
O1869       O  0.24896179  0.58460441  0.98261540    -0.39510
O1870       O  0.18875559  0.57783691  0.99981365    -0.39460
O1871       O  0.17774139  0.57300706  0.83936078    -0.40160
O1872       O  0.12337842  0.57668597  0.85850123    -0.40230
C1873       C  0.47161277  0.84191868  0.92429673    -0.12510
C1874       C  0.44797187  0.86106440  0.93641167     0.04500
C1875       C  0.40827111  0.84955479  0.92317976    -0.07800
C1876       C  0.39481979  0.82107228  0.89866245    -0.08540
C1877       C  0.41816401  0.80102990  0.88760527    -0.03090
C1878       C  0.45644442  0.81118487  0.90155622     0.03730
N1879       N  0.48152435  0.79164849  0.89194413     0.66230
H1880       H  0.50283430  0.85121794  0.93202614     0.15130
H1881       H  0.36505812  0.81355254  0.88873983     0.14840
N1882       N  0.38115143  0.86665450  0.93373330     0.73940
O1883       O  0.99129170  0.79179969  0.86510223    -0.39510
O1884       O  0.49476043  0.77496879  0.91029421    -0.39460
O1885       O  0.39498418  0.90650437  0.93468144    -0.40160
O1886       O  0.34165398  0.84232566  0.93676388    -0.40230
C1887       C  0.29717813  0.01821737  0.75957074    -0.12510
C1888       C  0.26809684  0.53214981  0.76971446     0.04500
C1889       C  0.23183810  0.52003704  0.75264957    -0.07800
C1890       C  0.22431873  0.49226708  0.72819953    -0.08540
C1891       C  0.25302714  0.97749363  0.71868019    -0.03090
C1892       C  0.28948529  0.99045505  0.73524516     0.03730
N1893       N  0.31998387  0.97702561  0.72680258     0.66230
H1894       H  0.32712082  0.03018983  0.77030345     0.15130
H1895       H  0.19534047  0.48154118  0.71656479     0.14840
N1896       N  0.20272149  0.53613741  0.75925419     0.73940
O1897       O  0.33975615  0.98946947  0.70247050    -0.39510
O1898       O  0.31905174  0.94520597  0.73930746    -0.39460
O1899       O  0.21475438  0.57542354  0.75586904    -0.40160
O1900       O  0.16354876  0.51051483  0.76196275    -0.40230
C1901       C  0.48763975  0.77156105  0.75618585    -0.12510
C1902       C  0.48476782  0.74693833  0.78095931     0.04500
C1903       C  0.01359449  0.73022333  0.78166913    -0.07800
C1904       C  0.04268955  0.73655536  0.75828837    -0.08540
C1905       C  0.04592359  0.76102383  0.73353723    -0.03090
C1906       C  0.01930934  0.78073732  0.73343479     0.03730
N1907       N  0.02601249  0.81254472  0.71188812     0.66230
H1908       H  0.46652031  0.78535331  0.75509275     0.15130
H1909       H  0.06340722  0.72232863  0.75985775     0.14840
N1910       N  0.01277032  0.70499587  0.80578707     0.73940
O1911       O  0.52752481  0.80504013  0.68491070    -0.39510
O1912       O  0.03308820  0.84945198  0.71968691    -0.39460
O1913       O  0.98501810  0.66620911  0.80709882    -0.40160
O1914       O  0.03253639  0.72353946  0.82842982    -0.40230
C1915       C  0.24189680  0.69393600  0.74754630    -0.12510
C1916       C  0.26487988  0.72013626  0.77078636     0.04500
C1917       C  0.27987565  0.76476156  0.76820450    -0.07800
C1918       C  0.26867967  0.78077719  0.74359000    -0.08540
C1919       C  0.24398370  0.75380720  0.72099366    -0.03090
C1920       C  0.23266930  0.71014667  0.72244019     0.03730
N1921       N  0.21615580  0.68235075  0.69769209     0.66230
H1922       H  0.23257891  0.66020275  0.74824509     0.15130
H1923       H  0.27810527  0.81449724  0.74259493     0.14840
N1924       N  0.30502411  0.79406064  0.79049345     0.73940
O1925       O  0.22380148  0.65132501  0.69489462    -0.39510
O1926       O  0.20081047  0.69214124  0.67645814    -0.39460
O1927       O  0.33161205  0.83202869  0.78372404    -0.40160
O1928       O  0.29781551  0.78362637  0.81729270    -0.40230
C1929       C  0.33538384  0.69924087  0.96856665    -0.12510
C1930       C  0.34042516  0.67120851  0.98710275     0.04500
C1931       C  0.35727186  0.64485135  0.97635604    -0.07800
C1932       C  0.36717418  0.64662043  0.94654954    -0.08540
C1933       C  0.35798306  0.67131375  0.92754222    -0.03090
C1934       C  0.34139524  0.69787710  0.93830723     0.03730
N1935       N  0.32691899  0.72019281  0.91946425     0.66230
H1936       H  0.32431377  0.72055055  0.97775153     0.15130
H1937       H  0.37883869  0.62571865  0.93758241     0.14840
N1938       N  0.36218286  0.61463873  0.49443547     0.73940
O1939       O  0.32009051  0.74954483  0.92988938    -0.39510
O1940       O  0.31405921  0.70629837  0.89413850    -0.39460
O1941       O  0.34852753  0.60793689  0.52073785    -0.40160
O1942       O  0.38024859  0.59404894  0.48408509    -0.40230
C1943       C  0.33829955  0.63139268  0.69731653    -0.12510
C1944       C  0.32649286  0.65789938  0.68247381     0.04500
C1945       C  0.33135704  0.69627148  0.69567604    -0.07800
C1946       C  0.34809770  0.70681280  0.72361780    -0.08540
C1947       C  0.35876025  0.67966420  0.73873835    -0.03090
C1948       C  0.35509380  0.64202892  0.72527285     0.03730
N1949       N  0.36762696  0.61417099  0.73976318     0.66230
H1950       H  0.33731153  0.60385738  0.68606559     0.15130
H1951       H  0.34933244  0.73452651  0.73479146     0.14840
N1952       N  0.32045728  0.72514436  0.68079947     0.73940
O1953       O  0.36712886  0.58279633  0.72611593    -0.39510
O1954       O  0.38284294  0.62261471  0.76505991    -0.39460
O1955       O  0.29755816  0.71325612  0.65857998    -0.40160
O1956       O  0.33146782  0.76203202  0.69098404    -0.40230
C1957       C  0.42009499  0.55724751  0.66387272    -0.12510
C1958       C  0.43848542  0.57608487  0.69088485     0.04500
C1959       C  0.45066970  0.62046891  0.69393142    -0.07800
C1960       C  0.44030368  0.64222277  0.67221022    -0.08540
C1961       C  0.41909275  0.62170830  0.64657360    -0.03090
C1962       C  0.41011577  0.57932246  0.64220261     0.03730
N1963       N  0.39324896  0.56020205  0.61450793     0.66230
H1964       H  0.41634534  0.52620622  0.65902911     0.15130
H1965       H  0.44827738  0.67532613  0.67570722     0.14840
N1966       N  0.47228534  0.64401682  0.71926646     0.73940
O1967       O  0.41703404  0.57458006  0.59189801    -0.39510
O1968       O  0.35404507  0.54548802  0.61104824    -0.39460
O1969       O  0.50816321  0.64779650  0.72477389    -0.40160
O1970       O  0.46087787  0.66913900  0.73152307    -0.40230
C1971       C  0.16768846  0.54430882  0.68903130    -0.12510
C1972       C  0.13683840  0.55784918  0.69327634     0.04500
C1973       C  0.13835769  0.58919523  0.67374235    -0.07800
C1974       C  0.16934453  0.60461594  0.65030595    -0.08540
C1975       C  0.20016256  0.59078432  0.64602225    -0.03090
C1976       C  0.19826545  0.55944301  0.66563292     0.03730
N1977       N  0.22440711  0.53954139  0.66050220     0.66230
H1978       H  0.16551216  0.51889181  0.70264012     0.15130
H1979       H  0.17069203  0.62939269  0.63625189     0.14840
N1980       N  0.10891399  0.60575995  0.67718000     0.73940
O1981       O  0.25521102  0.04824669  0.67666551    -0.39510
O1982       O  0.21869709  0.51572538  0.63841398    -0.39460
O1983       O  0.10418896  0.62025466  0.70172045    -0.40160
O1984       O  0.09360131  0.61301786  0.65481986    -0.40230
C1985       C  0.39411467  0.83418132  0.64527085    -0.12510
C1986       C  0.40978861  0.80521550  0.64177784     0.04500
C1987       C  0.43269743  0.80135327  0.66559266    -0.07800
C1988       C  0.44264098  0.82928534  0.68999941    -0.08540
C1989       C  0.43040215  0.86117697  0.69214673    -0.03090
C1990       C  0.40358210  0.86161065  0.66994824     0.03730
N1991       N  0.38695947  0.89091302  0.67073045     0.66230
H1992       H  0.37436747  0.83578153  0.62841840     0.15130
H1993       H  0.45997378  0.82594090  0.70764851     0.14840
N1994       N  0.44457300  0.76811425  0.66626156     0.73940
O1995       O  0.38282240  0.90549032  0.64674734    -0.39510
O1996       O  0.36820753  0.89477162  0.69369795    -0.39460
O1997       O  0.47121462  0.76761270  0.64748265    -0.40160
O1998       O  0.43481482  0.74434811  0.68859473    -0.40230
C1999       C  0.20960882  0.98770065  0.99866299    -0.12510
C2000       C  0.24120926  0.98182482  0.98332462     0.04500
C2001       C  0.28127913  0.99823429  0.99665937    -0.07800
C2002       C  0.28872136  0.51999707  0.52374216    -0.08540
C2003       C  0.25804827  0.52810428  0.53809541    -0.03090
C2004       C  0.21733310  0.50999608  0.52589264     0.03730
N2005       N  0.18294068  0.51265196  0.54116212     0.66230
H2006       H  0.17808001  0.97321272  0.98993317     0.15130
H2007       H  0.31969330  0.53226934  0.53311480     0.14840
N2008       N  0.31572383  0.99507647  0.98213137     0.73940
O2009       O  0.14971037  0.50363588  0.52773713    -0.39510
O2010       O  0.18340271  0.51917623  0.56851675    -0.39460
O2011       O  0.32300082  0.50390702  0.95515587    -0.40160
O2012       O  0.34256023  0.99038812  0.99665238    -0.40230
C2013       C  0.47994179  0.78490813  0.49893328    -0.12510
C2014       C  0.46481245  0.74708106  0.51553716     0.04500
C2015       C  0.48163619  0.71887147  0.50739573    -0.07800
C2016       C  0.01470466  0.73207510  0.98539546    -0.08540
C2017       C  0.03317465  0.77241972  0.97175724    -0.03090
C2018       C  0.01726885  0.80041297  0.48071360     0.03730
N2019       N  0.04247901  0.84599440  0.47685731     0.66230
H2020       H  0.46636758  0.80583721  0.50347965     0.15130
H2021       H  0.02908896  0.71200881  0.98102153     0.14840
N2022       N  0.46753634  0.67767790  0.02096252     0.73940
O2023       O  0.02547724  0.86920198  0.48237899    -0.39510
O2024       O  0.08245454  0.86336123  0.97824734    -0.39460
O2025       O  0.43022185  0.65619948  0.03113465    -0.40160
O2026       O  0.48986272  0.65904840  0.51796386    -0.40230
C2027       C  0.26288749  0.78592073  0.53007447    -0.12510
C2028       C  0.26748023  0.75021682  0.52344929     0.04500
C2029       C  0.25390314  0.73089036  0.99557972    -0.07800
C2030       C  0.24548928  0.75291022  0.97336415    -0.08540
C2031       C  0.24414815  0.79109449  0.97928838    -0.03090
C2032       C  0.24965135  0.80535047  0.50906393     0.03730
N2033       N  0.23752691  0.83603032  0.51965789     0.66230
H2034       H  0.26857148  0.79800312  0.55224305     0.15130
H2035       H  0.23643744  0.73825962  0.95196108     0.14840
N2036       N  0.24103649  0.68652811  0.99129842     0.73940
O2037       O  0.21411813  0.82728498  0.54265594    -0.39510
O2038       O  0.25832410  0.87435513  0.01142205    -0.39460
O2039       O  0.21862947  0.66062508  0.01126626    -0.40160
O2040       O  0.24135816  0.67231909  0.96574869    -0.40230
O2041       O  0.79213168  0.16528675  0.02483975    -0.80380
O2042       O  0.92556305  0.18147042  0.11739373    -0.80400
O2043       O  0.91475658  0.26396440  0.04210779    -0.80410
O2044       O  0.79670660  0.06541534  0.08158493    -0.80350
O2045       O  0.92173298  0.21022556  0.06035754    -0.80470
O2046       O  0.76336333  0.09344222  0.05738018    -0.80390
O2047       O  0.86468915  0.12112212  0.11566479    -0.80380
O2048       O  0.85589187  0.18225565  0.03607616    -0.80420
C2049       C  0.82851605  0.17161518  0.51746504     1.09310
C2050       C  0.90322286  0.14267131  0.12509439     1.09200
C2051       C  0.93351565  0.24097679  0.04103901     1.09330
C2052       C  0.77206338  0.06260519  0.06118287     1.09210
O2053       O  0.73257058  0.13455163  0.10273351    -0.80380
O2054       O  0.91489668  0.25211828  0.11254948    -0.80460
O2055       O  0.82683896  0.24495834  0.04162023    -0.80390
O2056       O  0.80692038  0.12250386  0.13547178    -0.80370
O2057       O  0.85895335  0.18814495  0.13899119    -0.80420
O2058       O  0.76474833  0.20735632  0.06490460    -0.80390
O2059       O  0.76659767  0.10289586  0.12103606    -0.80350
O2060       O  0.87257989  0.27271732  0.09568568    -0.80420
Co2061     Co  0.76767491  0.15291680  0.06523771     1.51530
Co2062     Co  0.88370140  0.19277188  0.09981490     1.51690
Co2063     Co  0.86409477  0.22762851  0.06464443     1.51570
Co2064     Co  0.81742478  0.12495809  0.09112165     1.51470
O2065       O  0.82498635  0.18397522  0.08908058    -1.42310
C2066       C  0.73430190  0.10987416  0.12178767     1.09240
C2067       C  0.89870974  0.27633227  0.11515198     1.09330
C2068       C  0.78742474  0.23446731  0.04518374     1.09270
C2069       C  0.82919988  0.15592645  0.15084260     1.09240
O2070       O  0.81640110  0.14923905  0.27884855    -0.80380
O2071       O  0.92154334  0.15656173  0.36318635    -0.80400
O2072       O  0.91219728  0.22867646  0.29997817    -0.80410
O2073       O  0.80501825  0.05933991  0.31494235    -0.80350
O2074       O  0.95703743  0.22622798  0.33066005    -0.80470
O2075       O  0.75895192  0.08163179  0.30392032    -0.80390
O2076       O  0.87771009  0.09326515  0.34909859    -0.80380
O2077       O  0.87572790  0.20909007  0.28744748    -0.80420
C2078       C  0.85118809  0.17922601  0.26995615     1.09310
C2079       C  0.90579741  0.11691348  0.36671778     1.09200
C2080       C  0.95084190  0.23575216  0.30524131     1.09330
C2081       C  0.77740921  0.05893651  0.29768060     1.09210
O2082       O  0.75952530  0.13525291  0.35678745    -0.80380
O2083       O  0.90171384  0.23051631  0.36796520    -0.80460
O2084       O  0.81525058  0.21882841  0.30480840    -0.80390
O2085       O  0.83622218  0.12199298  0.39059577    -0.80370
O2086       O  0.88372667  0.19113298  0.37871091    -0.80420
O2087       O  0.75245268  0.15998767  0.30019521    -0.80390
O2088       O  0.76082350  0.07533078  0.36408500    -0.80350
O2089       O  0.88489411  0.27000618  0.34032611    -0.80420
Co2090     Co  0.78990388  0.14367568  0.31726833     1.51530
Co2091     Co  0.89902420  0.18429203  0.33663489     1.51690
Co2092     Co  0.85804723  0.20878263  0.33043207     1.51570
Co2093     Co  0.82082365  0.08974321  0.35371346     1.51470
O2094       O  0.83802935  0.14445931  0.33250229    -1.42310
C2095       C  0.74733291  0.10120995  0.37158457     1.09240
C2096       C  0.90130591  0.26662514  0.36388332     1.09330
C2097       C  0.77725156  0.19931146  0.29418822     1.09270
C2098       C  0.85889699  0.16133576  0.39699217     1.09240
O2099       O  0.74573973  0.29796938  0.18039866    -0.80380
O2100       O  0.65464607  0.32838834  0.11340324    -0.80400
O2101       O  0.63761426  0.23699979  0.15509868    -0.80410
O2102       O  0.74204941  0.40701047  0.13040870    -0.80350
O2103       O  0.59889889  0.26023526  0.13516880    -0.80470
O2104       O  0.77387016  0.36965101  0.14277410    -0.80390
O2105       O  0.69818704  0.39569477  0.11935410    -0.80380
O2106       O  0.68539269  0.26169365  0.20629577    -0.80420
C2107       C  0.72380751  0.27042139  0.20027114     1.09310
C2108       C  0.67494100  0.36481483  0.10265143     1.09200
C2109       C  0.61311652  0.23388816  0.13464755     1.09330
C2110       C  0.77024408  0.39463998  0.12519732     1.09210
O2111       O  0.75220579  0.41489652  0.19420896    -0.80380
O2112       O  0.59331017  0.29980027  0.19185649    -0.80460
O2113       O  0.65939180  0.32502031  0.21743575    -0.80390
O2114       O  0.64642049  0.39604766  0.14492568    -0.80370
O2115       O  0.58826503  0.33437001  0.13816363    -0.80420
O2116       O  0.72537005  0.34143023  0.22189310    -0.80390
O2117       O  0.71619300  0.44390890  0.17462730    -0.80350
O2118       O  0.59771584  0.24415407  0.20930308    -0.80420
Co2119     Co  0.74544039  0.35399272  0.18203242     1.51530
Co2120     Co  0.62935487  0.31888644  0.15217675     1.51690
Co2121     Co  0.64807844  0.28123897  0.18670802     1.51570
Co2122     Co  0.69484124  0.38587170  0.16329291     1.51470
O2123       O  0.68626259  0.32572829  0.16172250    -1.42310
C2124       C  0.74154243  0.44521847  0.19374467     1.09240
C2125       C  0.57936244  0.26749706  0.20987504     1.09330
C2126       C  0.69317835  0.34337212  0.23089705     1.09270
C2127       C  0.60803394  0.37491063  0.13525579     1.09240
O2128       O  0.73438513  0.34795664  0.45912511    -0.80380
O2129       O  0.64031336  0.32658258  0.35881692    -0.80400
O2130       O  0.63848420  0.24909251  0.39688475    -0.80410
O2131       O  0.73985204  0.43255045  0.38934989    -0.80350
O2132       O  0.58553770  0.26114651  0.38651461    -0.80470
O2133       O  0.75586626  0.38494201  0.40227154    -0.80390
O2134       O  0.67290657  0.39577596  0.36017735    -0.80380
O2135       O  0.70714539  0.28829270  0.43507237    -0.80420
C2136       C  0.72961968  0.31057585  0.45594795     1.09310
C2137       C  0.66249360  0.36172602  0.34684971     1.09200
C2138       C  0.60594188  0.24006066  0.38195092     1.09330
C2139       C  0.76175101  0.41398618  0.38430573     1.09210
O2140       O  0.75098955  0.43109783  0.45311262    -0.80380
O2141       O  0.58325344  0.31910449  0.43470715    -0.80460
O2142       O  0.65458362  0.30522228  0.47580533    -0.80390
O2143       O  0.61525094  0.39068217  0.40363749    -0.80370
O2144       O  0.57263840  0.33433934  0.37807537    -0.80420
O2145       O  0.66888817  0.37012928  0.46438584    -0.80390
O2146       O  0.69519811  0.43875301  0.44266923    -0.80350
O2147       O  0.58571934  0.26096493  0.44335176    -0.80420
Co2148     Co  0.71278870  0.37910027  0.43399183     1.51530
Co2149     Co  0.61389211  0.32480430  0.39648426     1.51690
Co2150     Co  0.64820821  0.28016839  0.43560536     1.51570
Co2151     Co  0.67837797  0.40522013  0.40203864     1.51470
O2152       O  0.66760034  0.33772294  0.41247646    -1.42310
C2153       C  0.72966483  0.45090129  0.45756308     1.09240
C2154       C  0.56934529  0.28500507  0.44917270     1.09330
C2155       C  0.65756873  0.34097760  0.98287773     1.09270
C2156       C  0.58931644  0.37454282  0.38195851     1.09240
O2157       O  0.94324805  0.40176677  0.47903259    -0.80380
O2158       O  0.52632983  0.02269476  0.05753804    -0.80400
O2159       O  0.54584295  0.44047499  0.51770172    -0.80410
O2160       O  0.93517896  0.50879326  0.03232500    -0.80350
O2161       O  0.57734834  0.49929017  0.04290379    -0.80470
O2162       O  0.90961266  0.44429282  0.01387825    -0.80390
O2163       O  0.97280165  0.03313315  0.04643186    -0.80380
O2164       O  0.00710641  0.42198839  0.45952221    -0.80420
C2165       C  0.96704377  0.39535535  0.46036832     1.09310
C2166       C  0.49420090  0.02611366  0.06516024     1.09200
C2167       C  0.56382703  0.45914256  0.04134337     1.09330
C2168       C  0.90646329  0.46873033  0.03294380     1.09210
O2169       O  0.94582064  0.01541964  0.46846556    -0.80380
O2170       O  0.60149598  0.04719015  0.48371583    -0.80460
O2171       O  0.54035525  0.51177602  0.45261059    -0.80390
O2172       O  0.53760990  0.09119722  0.02798657    -0.80370
O2173       O  0.59633599  0.08658077  0.03585450    -0.80420
O2174       O  0.97578154  0.46922630  0.44038160    -0.80390
O2175       O  0.97090221  0.07581676  0.49322169    -0.80350
O2176       O  0.59669701  0.98643783  0.46610454    -0.80420
Co2177     Co  0.94727642  0.45957400  0.47848661     1.51530
Co2178     Co  0.55671154  0.03307575  0.01979706     1.51690
Co2179     Co  0.54273066  0.47614568  0.48426907     1.51570
Co2180     Co  0.99108658  0.03728727  0.00459083     1.51470
O2181       O  0.50086596  0.98552389  0.50553732    -1.42310
C2182       C  0.95271940  0.05445279  0.47071654     1.09240
C2183       C  0.61662688  0.02736625  0.46657310     1.09330
C2184       C  0.01348296  0.49425332  0.43362418     1.09270
C2185       C  0.57508851  0.10670047  0.03946336     1.09240
O2186       O  0.92829049  0.40448606  0.23346970    -0.80380
O2187       O  0.50393716  0.97701567  0.29748074    -0.80400
O2188       O  0.54155883  0.45140990  0.26431164    -0.80410
O2189       O  0.91915724  0.51665857  0.28227911    -0.80350
O2190       O  0.58678804  0.51124689  0.28496173    -0.80470
O2191       O  0.89602093  0.44855451  0.27091397    -0.80390
O2192       O  0.98172055  0.02102545  0.30918516    -0.80380
O2193       O  0.99064826  0.42385412  0.21089369    -0.80420
C2194       C  0.95093688  0.39711648  0.21428388     1.09310
C2195       C  0.49331259  0.99462336  0.31652363     1.09200
C2196       C  0.57053726  0.47062188  0.28374206     1.09330
C2197       C  0.89446361  0.47668020  0.28796402     1.09210
O2198       O  0.91681062  0.01074978  0.22066378    -0.80380
O2199       O  0.58257322  0.04896034  0.23190611    -0.80460
O2200       O  0.51863611  0.51073000  0.19759051    -0.80390
O2201       O  0.50246389  0.09464316  0.28575856    -0.80370
O2202       O  0.55289614  0.07366403  0.28915573    -0.80420
O2203       O  0.95051450  0.46677254  0.19091410    -0.80390
O2204       O  0.97851732  0.06523552  0.22940744    -0.80350
O2205       O  0.57976530  0.99132312  0.21123407    -0.80420
Co2206     Co  0.92533674  0.45890191  0.23066438     1.51530
Co2207     Co  0.54015768  0.01423550  0.26641727     1.51690
Co2208     Co  0.52695953  0.48164886  0.23054423     1.51570
Co2209     Co  0.98182978  0.04098212  0.26824139     1.51470
O2210       O  0.48164522  0.99192729  0.25006831    -1.42310
C2211       C  0.94504436  0.04935248  0.21472677     1.09240
C2212       C  0.59900871  0.03198463  0.21348876     1.09330
C2213       C  0.98731817  0.49263729  0.18156757     1.09270
C2214       C  0.53773995  0.10047661  0.29564064     1.09240
C2215       C  0.51204558  0.45929716  0.38834691    -0.12510
C2216       C  0.52533011  0.49802716  0.40339759     0.04500
C2217       C  0.03758078  0.03626427  0.38855923    -0.07800
C2218       C  0.02956361  0.03332229  0.35900867    -0.08540
C2219       C  0.50609193  0.99356241  0.34569321    -0.03090
C2220       C  0.50077248  0.45593554  0.35925388     0.03730
N2221       N  0.48121931  0.41436168  0.34536890     0.66230
H2222       H  0.50497687  0.43060736  0.40039987     0.15130
H2223       H  0.03962843  0.06214626  0.34670522     0.14840
N2224       N  0.05581098  0.07730943  0.40303616     0.73940
O2225       O  0.48565318  0.38427280  0.35598242    -0.39510
O2226       O  0.45560659  0.40578220  0.32489817    -0.39460
O2227       O  0.08163570  0.11060617  0.38926110    -0.40160
O2228       O  0.04439131  0.08116525  0.42892924    -0.40230
C2229       C  0.47198667  0.47638134  0.10309849    -0.12510
C2230       C  0.48048739  0.01730896  0.09491867     0.04500
C2231       C  0.99357047  0.05104591  0.11532139    -0.07800
C2232       C  0.99868207  0.04257606  0.14395024    -0.08540
C2233       C  0.49265473  0.50242761  0.15139866    -0.03090
C2234       C  0.48224229  0.46968910  0.13066674     0.03730
N2235       N  0.48736871  0.43263184  0.13606665     0.66230
H2236       H  0.46447577  0.45188198  0.08641773     0.15130
H2237       H  0.00667180  0.06692280  0.16073415     0.14840
N2238       N  0.00261631  0.09355354  0.10741675     0.73940
O2239       O  0.47359123  0.40194778  0.11808377    -0.39510
O2240       O  0.51407824  0.43489297  0.15421956    -0.39460
O2241       O  0.99539348  0.10141712  0.08203377    -0.40160
O2242       O  0.51403572  0.12260448  0.12658759    -0.40230
C2243       C  0.56247378  0.37956016  0.33302593    -0.12510
C2244       C  0.58373747  0.40077550  0.35835747     0.04500
C2245       C  0.60303152  0.44575838  0.35814220    -0.07800
C2246       C  0.59959335  0.46780301  0.33350774    -0.08540
C2247       C  0.57760113  0.44622098  0.30818646    -0.03090
C2248       C  0.55925563  0.40121836  0.30852078     0.03730
N2249       N  0.54024690  0.37626698  0.28334633     0.66230
H2250       H  0.54915510  0.34525077  0.33140201     0.15130
H2251       H  0.61329443  0.50200770  0.33448314     0.14840
N2252       N  0.62682759  0.46949582  0.38252616     0.73940
O2253       O  0.55425224  0.35165840  0.27405696    -0.39510
O2254       O  0.50311591  0.36825161  0.27721446    -0.39460
O2255       O  0.66683354  0.48922336  0.38013614    -0.40160
O2256       O  0.60874910  0.96337691  0.40766148    -0.40230
C2257       C  0.55083613  0.16794300  0.36476729    -0.12510
C2258       C  0.59066748  0.20365660  0.36007485     0.04500
C2259       C  0.61397517  0.20418852  0.33401858    -0.07800
C2260       C  0.59760775  0.16961419  0.31398155    -0.08540
C2261       C  0.55711822  0.13467988  0.31847268    -0.03090
C2262       C  0.53348231  0.13416104  0.34443629     0.03730
N2263       N  0.49261219  0.09859229  0.35154359     0.66230
H2264       H  0.53226437  0.16665648  0.38406017     0.15130
H2265       H  0.61547612  0.17156327  0.29379202     0.14840
N2266       N  0.65047258  0.24232393  0.32479736     0.73940
O2267       O  0.48556473  0.08158605  0.37660061    -0.39510
O2268       O  0.96203058  0.08753177  0.33466048    -0.39460
O2269       O  0.68568087  0.24241745  0.32173432    -0.40160
O2270       O  0.64438995  0.26867767  0.31033102    -0.40230
C2271       C  0.82270603  0.46149923  0.31032296    -0.12510
C2272       C  0.86138707  0.46158984  0.31355619     0.04500
C2273       C  0.86543918  0.44384593  0.34033952    -0.07800
C2274       C  0.83055910  0.42348655  0.36059225    -0.08540
C2275       C  0.79403328  0.42808395  0.35869667    -0.03090
C2276       C  0.79109954  0.44909610  0.33315803     0.03730
N2277       N  0.75687399  0.45867266  0.32965571     0.66230
H2278       H  0.81758154  0.47241545  0.29017631     0.15130
H2279       H  0.83474849  0.40992465  0.38053877     0.14840
N2280       N  0.90598117  0.45522492  0.35134103     0.73940
O2281       O  0.75219621  0.48377977  0.34746044    -0.39510
O2282       O  0.74016582  0.45280877  0.30498448    -0.39460
O2283       O  0.92820659  0.99385226  0.35837857    -0.40160
O2284       O  0.91024192  0.42735896  0.36544418    -0.40230
C2285       C  0.71836120  0.35501313  0.27954375    -0.12510
C2286       C  0.69406617  0.36184086  0.25900713     0.04500
C2287       C  0.66619061  0.37804632  0.26749462    -0.07800
C2288       C  0.65689848  0.37798865  0.29727463    -0.08540
C2289       C  0.67581685  0.36368985  0.31733115    -0.03090
C2290       C  0.70894422  0.35472448  0.30910777     0.03730
N2291       N  0.73129293  0.34270452  0.32963049     0.66230
H2292       H  0.74126450  0.34465652  0.27261074     0.15130
H2293       H  0.63443389  0.38844902  0.30496970     0.14840
N2294       N  0.64827761  0.39546982  0.24714363     0.73940
O2295       O  0.76707605  0.34603583  0.32226542    -0.39510
O2296       O  0.71441536  0.32541518  0.35397832    -0.39460
O2297       O  0.65255530  0.39284126  0.21970813    -0.40160
O2298       O  0.63236120  0.41842766  0.25667148    -0.40230
C2299       C  0.68856267  0.39088414  0.02323742    -0.12510
C2300       C  0.65526922  0.35211557  0.01330561     0.04500
C2301       C  0.62430545  0.32427853  0.03332530    -0.07800
C2302       C  0.62805527  0.33589343  0.06245718    -0.08540
C2303       C  0.66577064  0.36943283  0.07267247    -0.03090
C2304       C  0.69489259  0.39955174  0.05309405     0.03730
N2305       N  0.73334218  0.43471684  0.06284772     0.66230
H2306       H  0.71332230  0.41105535  0.00812122     0.15130
H2307       H  0.60422632  0.31438155  0.07783595     0.14840
N2308       N  0.59168274  0.28257557  0.02574686     0.73940
O2309       O  0.76854028  0.44187175  0.05108470    -0.39510
O2310       O  0.73218653  0.45982920  0.08232824    -0.39460
O2311       O  0.60187078  0.25567957  0.01501395    -0.40160
O2312       O  0.55586552  0.26870316  0.03868967    -0.40230
C2313       C  0.59164178  0.45948083  0.09233008    -0.12510
C2314       C  0.57080497  0.43621895  0.06724091     0.04500
C2315       C  0.55616703  0.39180549  0.06859822    -0.07800
C2316       C  0.56622566  0.37296777  0.09199635    -0.08540
C2317       C  0.59039045  0.39659219  0.11557910    -0.03090
C2318       C  0.60000896  0.44026174  0.11684265     0.03730
N2319       N  0.61256459  0.46433682  0.14361727     0.66230
H2320       H  0.60074567  0.99319415  0.09322437     0.15130
H2321       H  0.55527675  0.33890328  0.09131814     0.14840
N2322       N  0.53107102  0.36433949  0.04634078     0.73940
O2323       O  0.60824140  0.99741548  0.14614066    -0.39510
O2324       O  0.61817369  0.44844261  0.16652030    -0.39460
O2325       O  0.53963628  0.33552798  0.03758785    -0.40160
O2326       O  0.49439415  0.35992801  0.04299351    -0.40230
C2327       C  0.62705085  0.18024877  0.10564149    -0.12510
C2328       C  0.60350241  0.20258397  0.10923794     0.04500
C2329       C  0.57309965  0.19568961  0.08738913    -0.07680
C2330       C  0.56966063  0.16939438  0.06275412    -0.08540
C2331       C  0.59021777  0.14424600  0.06071708    -0.03090
C2332       C  0.61962375  0.15049951  0.08266263     0.03730
N2333       N  0.64065288  0.12507909  0.08291869     0.66230
H2334       H  0.65054776  0.18467435  0.12152136     0.15130
H2335       H  0.54691248  0.16497424  0.04651839     0.14840
N2336       N  0.54060681  0.20849188  0.09165930     0.73940
O2337       O  0.67353472  0.13566786  0.06680192    -0.39510
O2338       O  0.62145826  0.08790326  0.09368395    -0.39460
O2339       O  0.54989389  0.24704071  0.09528432    -0.40160
O2340       O  0.50248913  0.18208226  0.08675929    -0.40230
C2341       C  0.87128833  0.47128422  0.08295937    -0.12510
C2342       C  0.87077446  0.44937940  0.05662804     0.04500
C2343       C  0.83743081  0.40645265  0.05461238    -0.07800
C2344       C  0.80409443  0.38935610  0.07634022    -0.08540
C2345       C  0.80274666  0.41345541  0.10056317    -0.03090
C2346       C  0.83779213  0.45341507  0.10475810     0.03730
N2347       N  0.84179071  0.47188022  0.13342401     0.66230
H2348       H  0.89901148  0.50090652  0.08722878     0.15130
H2349       H  0.77951278  0.35674396  0.07490775     0.14840
N2350       N  0.83950711  0.37812266  0.03266920     0.73940
O2351       O  0.86000057  0.46140257  0.15215751    -0.39510
O2352       O  0.81381765  0.48154394  0.14283826    -0.39460
O2353       O  0.85274317  0.35240710  0.03948430    -0.40160
O2354       O  0.83508269  0.38334706  0.00591379    -0.40230
C2355       C  0.90734265  0.04533526  0.42891881    -0.12510
C2356       C  0.94180939  0.07349693  0.44529862     0.04500
C2357       C  0.96588835  0.11624814  0.43473653    -0.07800
C2358       C  0.95149318  0.12908055  0.41007596    -0.08540
C2359       C  0.91662347  0.10046409  0.39374911    -0.03090
C2360       C  0.89290333  0.05835942  0.40469788     0.03730
N2361       N  0.85255642  0.02873846  0.39349920     0.66230
H2362       H  0.89044536  0.01226642  0.43579349     0.15130
H2363       H  0.96898522  0.16182946  0.40258338     0.14840
N2364       N  0.00687738  0.14604237  0.44575554     0.73940
O2365       O  0.83941483  0.48964743  0.39797290    -0.39510
O2366       O  0.82536126  0.04072232  0.38891661    -0.39460
O2367       O  0.52661329  0.13465566  0.46271532    -0.40160
O2368       O  0.02702975  0.18254752  0.43424459    -0.40230
C2369       C  0.72631245  0.08730245  0.42519717    -0.12510
C2370       C  0.71456502  0.08871861  0.39625325     0.04500
C2371       C  0.67120946  0.07408153  0.39113461    -0.07800
C2372       C  0.64080926  0.05585518  0.41475190    -0.08540
C2373       C  0.65193529  0.05211686  0.44361197    -0.03090
C2374       C  0.69602918  0.07095890  0.44904475     0.03730
N2375       N  0.71089977  0.07536084  0.47841843     0.66230
H2376       H  0.75973797  0.09972076  0.42925015     0.15130
H2377       H  0.60777285  0.04233267  0.41021509     0.14840
N2378       N  0.65727112  0.07505138  0.36193483     0.73940
O2379       O  0.74897189  0.08461931  0.48258917    -0.39510
O2380       O  0.68877406  0.07787761  0.49978408    -0.39460
O2381       O  0.67774842  0.07298190  0.33933249    -0.40160
O2382       O  0.62339569  0.07668715  0.35846668    -0.40230
C2383       C  0.97160855  0.34187527  0.42432642    -0.12510
C2384       C  0.94797575  0.36103615  0.43643077     0.04500
C2385       C  0.90828341  0.34953872  0.42318990    -0.07800
C2386       C  0.89483633  0.32106069  0.39867015    -0.08540
C2387       C  0.91817547  0.30101052  0.38761788    -0.03090
C2388       C  0.95644626  0.31115104  0.40157873     0.03730
N2389       N  0.98152455  0.29161225  0.39196779     0.66230
H2390       H  0.00281829  0.35115406  0.43207170     0.15130
H2391       H  0.86508106  0.31355060  0.38874151     0.14840
N2392       N  0.88116461  0.36664136  0.43373959     0.73940
O2393       O  0.49128958  0.29182408  0.36507956    -0.39510
O2394       O  0.99476274  0.27493522  0.41031834    -0.39460
O2395       O  0.89499769  0.40649135  0.43468271    -0.40160
O2396       O  0.84166689  0.34231363  0.43676962    -0.40230
C2397       C  0.79718312  0.51821027  0.25955660    -0.12510
C2398       C  0.76811099  0.03214631  0.26969906     0.04500
C2399       C  0.73185111  0.02003783  0.25263645    -0.07800
C2400       C  0.72432589  0.99226617  0.22818773    -0.08540
C2401       C  0.75302394  0.47748407  0.21867051    -0.03090
C2402       C  0.78948460  0.49044475  0.23523268     0.03730
N2403       N  0.81997729  0.47700688  0.22679116     0.66230
H2404       H  0.82712841  0.53018346  0.27028651     0.15130
H2405       H  0.69534679  0.98154297  0.21655460     0.14840
N2406       N  0.70273945  0.03614423  0.25924209     0.73940
O2407       O  0.83974113  0.48943494  0.20245485    -0.39510
O2408       O  0.81904695  0.44519370  0.23930441    -0.39460
O2409       O  0.71477514  0.07542991  0.25585114    -0.40160
O2410       O  0.66356640  0.01052559  0.26195805    -0.40230
C2411       C  0.98767270  0.27154815  0.25620992    -0.12510
C2412       C  0.98480185  0.24693206  0.28098553     0.04500
C2413       C  0.51360008  0.23020691  0.28168653    -0.07800
C2414       C  0.54269769  0.23653741  0.25830715    -0.08540
C2415       C  0.54593499  0.26100710  0.23355585    -0.03090
C2416       C  0.51932257  0.28072187  0.23345224     0.03730
N2417       N  0.52602614  0.31252446  0.21190295     0.66230
H2418       H  0.96655073  0.28533694  0.25511056     0.15130
H2419       H  0.56341304  0.22230809  0.25987695     0.14840
N2420       N  0.51276805  0.20497599  0.30580468     0.73940
O2421       O  0.02755286  0.30500216  0.18493996    -0.39510
O2422       O  0.53313564  0.34944391  0.21969615    -0.39460
O2423       O  0.48501176  0.16619056  0.30711325    -0.40160
O2424       O  0.53252137  0.22351729  0.32845209    -0.40230
C2425       C  0.74197800  0.19394810  0.24750291    -0.12510
C2426       C  0.76492360  0.22013707  0.27075905     0.04500
C2427       C  0.77988183  0.26475752  0.26819810    -0.07800
C2428       C  0.76867883  0.28077659  0.24358937    -0.08540
C2429       C  0.74401182  0.25381527  0.22097948    -0.03090
C2430       C  0.73274372  0.21016483  0.22240264     0.03730
N2431       N  0.71626950  0.18239164  0.19763897     0.66230
H2432       H  0.73269404  0.16022194  0.24818643     0.15130
H2433       H  0.77807689  0.31449095  0.24260869     0.14840
N2434       N  0.80499800  0.29404620  0.29050243     0.73940
O2435       O  0.72393901  0.15138210  0.19483402    -0.39510
O2436       O  0.70094511  0.19219661  0.17639966    -0.39460
O2437       O  0.83156907  0.33202744  0.28375131    -0.40160
O2438       O  0.79777869  0.28358462  0.31729673    -0.40230
C2439       C  0.83539021  0.19923648  0.46855923    -0.12510
C2440       C  0.84042779  0.17120522  0.48709862     0.04500
C2441       C  0.85725872  0.14483341  0.47635411    -0.07800
C2442       C  0.86715114  0.14658859  0.44654676    -0.08540
C2443       C  0.85796705  0.17128480  0.42753745    -0.03090
C2444       C  0.84139194  0.19786019  0.43829977     0.03730
N2445       N  0.82691785  0.22017556  0.41945457     0.66230
H2446       H  0.82432973  0.22055503  0.47774206     0.15130
H2447       H  0.87880658  0.12567816  0.43758143     0.14840
N2448       N  0.86215199  0.11462365  0.99442552     0.73940
O2449       O  0.82009248  0.24953082  0.42987713    -0.39510
O2450       O  0.81405527  0.20627713  0.39413002    -0.39460
O2451       O  0.84849349  0.10792346  0.02072710    -0.40160
O2452       O  0.88021326  0.09402867  0.98407664    -0.40230
C2453       C  0.83833627  0.13142959  0.19730024    -0.12510
C2454       C  0.82655848  0.15796698  0.18246736     0.04500
C2455       C  0.83147670  0.19635609  0.19567626    -0.07800
C2456       C  0.84823785  0.20687958  0.22361336    -0.08540
C2457       C  0.85884463  0.17968749  0.23873061    -0.03090
C2458       C  0.85513964  0.14204363  0.22525525     0.03730
N2459       N  0.86764395  0.11415601  0.23973510     0.66230
H2460       H  0.83731459  0.10388351  0.18604372     0.15130
H2461       H  0.84950978  0.23460505  0.23479315     0.14840
N2462       N  0.82059476  0.22525568  0.18081687     0.73940
O2463       O  0.86711829  0.08277522  0.22607892    -0.39510
O2464       O  0.88286720  0.12258162  0.26502991    -0.39460
O2465       O  0.79770496  0.21340118  0.15859237    -0.40160
O2466       O  0.83159639  0.26212699  0.19102920    -0.40230
C2467       C  0.92010381  0.05729231  0.16386396    -0.12510
C2468       C  0.93850055  0.07612359  0.19087499     0.04500
C2469       C  0.95070263  0.12051197  0.19391853    -0.07800
C2470       C  0.94034530  0.14227606  0.17219778    -0.08540
C2471       C  0.91912201  0.12176609  0.14656290    -0.03090
C2472       C  0.91012859  0.07937353  0.14219517     0.03730
N2473       N  0.89323940  0.06024709  0.11450678     0.66230
H2474       H  0.91635286  0.02625218  0.15901900     0.15130
H2475       H  0.94833603  0.17538326  0.17569447     0.14840
N2476       N  0.97233496  0.14405606  0.21924909     0.73940
O2477       O  0.91700463  0.07462307  0.09188775    -0.39510
O2478       O  0.85403223  0.04553504  0.11106479    -0.39460
O2479       O  0.00822158  0.14784230  0.22473682    -0.40160
O2480       O  0.96092653  0.16916644  0.23152316    -0.40230
C2481       C  0.66769930  0.04431355  0.18902541    -0.12510
C2482       C  0.63685664  0.05786244  0.19327966     0.04500
C2483       C  0.63838331  0.08922059  0.17375456    -0.07800
C2484       C  0.66936009  0.10463570  0.15031221    -0.08540
C2485       C  0.70017379  0.09079948  0.14602101    -0.03090
C2486       C  0.69827495  0.05945131  0.16562591     0.03730
N2487       N  0.72441345  0.03954753  0.16048788     0.66230
H2488       H  0.66551808  0.01888872  0.20262791     0.15130
H2489       H  0.67070589  0.12941400  0.13626045     0.14840
N2490       N  0.60895374  0.10580033  0.17720657     0.73940
O2491       O  0.75522481  0.54826376  0.17667067    -0.39510
O2492       O  0.71869996  0.01573762  0.13839572    -0.39460
O2493       O  0.60426252  0.12031296  0.20174870    -0.40160
O2494       O  0.59361882  0.11304996  0.15485498    -0.40230
C2495       C  0.89403149  0.33418912  0.14526789    -0.12510
C2496       C  0.90979322  0.30529956  0.14171869     0.04500
C2497       C  0.93280775  0.30150264  0.16548385    -0.07800
C2498       C  0.94273967  0.32939710  0.18990766    -0.08540
C2499       C  0.93039449  0.36120597  0.19212077    -0.03090
C2500       C  0.90349866  0.36159803  0.16996155     0.03730
N2501       N  0.88680271  0.39084214  0.17079601     0.66230
H2502       H  0.87421367  0.33574118  0.12844989     0.15130
H2503       H  0.96015933  0.32609646  0.20751448     0.14840
N2504       N  0.94482891  0.26836923  0.16607098     0.73940
O2505       O  0.88252084  0.40535748  0.14683216    -0.39510
O2506       O  0.86812913  0.39470077  0.19380526    -0.39460
O2507       O  0.97152564  0.26803562  0.14726653    -0.40160
O2508       O  0.93504069  0.24445195  0.18832546    -0.40230
C2509       C  0.70961678  0.48771840  0.49865011    -0.12510
C2510       C  0.74121391  0.48183427  0.48331479     0.04500
C2511       C  0.78128104  0.49823565  0.49665329    -0.07800
C2512       C  0.78871571  0.01999339  0.02374968    -0.08540
C2513       C  0.75804717  0.02810693  0.03810384    -0.03090
C2514       C  0.71732966  0.00999588  0.02590391     0.03730
N2515       N  0.68293973  0.01265272  0.04117636     0.66230
H2516       H  0.67808968  0.47323734  0.48991786     0.15130
H2517       H  0.81968880  0.03226480  0.03312054     0.14840
N2518       N  0.81572182  0.49506309  0.48213210     0.73940
O2519       O  0.64970820  0.00363890  0.02775373    -0.39510
O2520       O  0.68340438  0.01917347  0.06853156    -0.39460
O2521       O  0.82300939  0.00387276  0.45516244    -0.40160
O2522       O  0.84254613  0.49036230  0.49665883    -0.40230
C2523       C  0.97993622  0.28492669  0.99889446    -0.12510
C2524       C  0.96477982  0.24709129  0.01549698     0.04500
C2525       C  0.98160335  0.21887498  0.00737245    -0.07800
C2526       C  0.51472583  0.23208494  0.48540947    -0.08540
C2527       C  0.53316629  0.27241956  0.47175548    -0.03090
C2528       C  0.51727382  0.30041860  0.98071657     0.03730
N2529       N  0.54250572  0.34600084  0.97688209     0.66230
H2530       H  0.96640793  0.30589370  0.00345589     0.15130
H2531       H  0.52912323  0.21202991  0.48103609     0.14840
N2532       N  0.96752663  0.17768100  0.52096363     0.73940
O2533       O  0.52551410  0.36922098  0.98238973    -0.39510
O2534       O  0.58235276  0.36341798  0.47808002    -0.39460
O2535       O  0.93020619  0.15620390  0.53112528    -0.40160
O2536       O  0.98982908  0.15906294  0.01798015    -0.40230
C2537       C  0.76285988  0.28590941  0.03005942    -0.12510
C2538       C  0.76744629  0.25020402  0.02343190     0.04500
C2539       C  0.75391785  0.23090632  0.49557659    -0.07800
C2540       C  0.74549996  0.25292502  0.47336244    -0.08540
C2541       C  0.74415381  0.29110627  0.47928856    -0.03090
C2542       C  0.74963873  0.30535124  0.00904935     0.03730
N2543       N  0.73754164  0.33605152  0.01964350     0.66230
H2544       H  0.76854282  0.29798650  0.05222881     0.15130
H2545       H  0.73644816  0.23827506  0.45195919     0.14840
N2546       N  0.74105245  0.18654488  0.49129457     0.73940
O2547       O  0.71415169  0.32732673  0.04264989    -0.39510
O2548       O  0.75835167  0.37437188  0.51141894    -0.39460
O2549       O  0.71864538  0.16064216  0.51126243    -0.40160
O2550       O  0.74137232  0.17233618  0.46574447    -0.40230
O2551       O  0.79215650  0.16530545  0.52484722    -0.80380
O2552       O  0.92555701  0.18141635  0.61739543    -0.80400
O2553       O  0.91478785  0.26396698  0.54213906    -0.80410
O2554       O  0.79669309  0.06539517  0.58157336    -0.80350
O2555       O  0.92174712  0.21020913  0.56037149    -0.80470
O2556       O  0.76336406  0.09344398  0.55737407    -0.80390
O2557       O  0.86467295  0.12107713  0.61566632    -0.80380
O2558       O  0.85591640  0.18226718  0.53608050    -0.80420
C2559       C  0.82849338  0.17160107  0.01745885     1.09310
C2560       C  0.90320751  0.14261996  0.62509622     1.09200
C2561       C  0.93353706  0.24097060  0.54106012     1.09330
C2562       C  0.77205431  0.06259872  0.56117178     1.09210
O2563       O  0.73257711  0.13455367  0.60273332    -0.80380
O2564       O  0.91491786  0.25207191  0.61258673    -0.80460
O2565       O  0.82687612  0.24497758  0.54164638    -0.80390
O2566       O  0.80689556  0.12246038  0.63546524    -0.80370
O2567       O  0.85894769  0.18808890  0.63900368    -0.80420
O2568       O  0.76477797  0.20737181  0.56491935    -0.80390
O2569       O  0.76658203  0.10286876  0.62102590    -0.80350
O2570       O  0.87261136  0.27268745  0.59572659    -0.80420
Co2571     Co  0.76769080  0.15292441  0.56524207     1.51530
Co2572     Co  0.88370770  0.19273772  0.59982623     1.51690
Co2573     Co  0.86411990  0.22762164  0.56466597     1.51570
Co2574     Co  0.81742195  0.12493493  0.59111922     1.51470
O2575       O  0.82499889  0.18395897  0.58909063    -1.42310
C2576       C  0.73429416  0.10986059  0.62178072     1.09240
C2577       C  0.89872853  0.27628097  0.61519830     1.09330
C2578       C  0.78746117  0.23448909  0.54520391     1.09270
C2579       C  0.82917528  0.15587262  0.65084394     1.09240
O2580       O  0.81635709  0.14924791  0.77886005    -0.80380
O2581       O  0.92154618  0.15658517  0.86317911    -0.80400
O2582       O  0.91217327  0.22868383  0.79996239    -0.80410
O2583       O  0.80500768  0.05935692  0.81495070    -0.80350
O2584       O  0.95702656  0.22624487  0.83063711    -0.80470
O2585       O  0.75893391  0.08164224  0.80393278    -0.80390
O2586       O  0.87770808  0.09328971  0.84909510    -0.80380
O2587       O  0.87569442  0.20909757  0.78743962    -0.80420
C2588       C  0.85113832  0.17923013  0.76995684     1.09310
C2589       C  0.90579840  0.11693681  0.86671273     1.09200
C2590       C  0.95082116  0.23576318  0.80521894     1.09330
C2591       C  0.77739594  0.05895094  0.79769061     1.09210
O2592       O  0.75951608  0.13526343  0.85680840    -0.80380
O2593       O  0.90171341  0.23053670  0.86795446    -0.80460
O2594       O  0.81522756  0.21884240  0.80481767    -0.80390
O2595       O  0.83622872  0.12202100  0.89059721    -0.80370
O2596       O  0.88373304  0.19115801  0.87870459    -0.80420
O2597       O  0.75242395  0.16000326  0.80022128    -0.80390
O2598       O  0.76082080  0.07534363  0.86409896    -0.80350
O2599       O  0.88488875  0.27002480  0.84031723    -0.80420
Co2600     Co  0.78988076  0.14368759  0.81728416     1.51530
Co2601     Co  0.89901562  0.18430752  0.83662659     1.51690
Co2602     Co  0.85803726  0.20879950  0.83042859     1.51570
Co2603     Co  0.82082116  0.08976391  0.85371858     1.51470
O2604       O  0.83801705  0.14447551  0.83250445    -1.42310
C2605       C  0.74732643  0.10121845  0.87160218     1.09240
C2606       C  0.90130376  0.26664455  0.86387307     1.09330
C2607       C  0.77722217  0.19932574  0.79420764     1.09270
C2608       C  0.85890678  0.16136474  0.89698949     1.09240
O2609       O  0.74571925  0.29797085  0.68040544    -0.80380
O2610       O  0.65467480  0.32841836  0.61339404    -0.80400
O2611       O  0.63761330  0.23701901  0.65508958    -0.80410
O2612       O  0.74206065  0.40703047  0.63041361    -0.80350
O2613       O  0.59891248  0.26026066  0.63514628    -0.80470
O2614       O  0.77386635  0.36965614  0.64277874    -0.80390
O2615       O  0.69819862  0.39572636  0.61935520    -0.80380
O2616       O  0.68536485  0.26170188  0.70629626    -0.80420
C2617       C  0.72377966  0.27042416  0.70027728     1.09310
C2618       C  0.67496208  0.36484906  0.60264780     1.09200
C2619       C  0.61312769  0.23391140  0.63463136     1.09330
C2620       C  0.77024776  0.39464986  0.62520192     1.09210
O2621       O  0.75220689  0.41490954  0.69421239    -0.80380
O2622       O  0.59329297  0.29982383  0.69183141    -0.80460
O2623       O  0.65936897  0.32503469  0.71742753    -0.80390
O2624       O  0.64642444  0.39606905  0.64492097    -0.80370
O2625       O  0.58827605  0.33439197  0.63813898    -0.80420
O2626       O  0.72534482  0.34143502  0.72189073    -0.80390
O2627       O  0.71619613  0.44392541  0.67463142    -0.80350
O2628       O  0.59768837  0.24417364  0.70928081    -0.80420
Co2629     Co  0.74543003  0.35400012  0.68203490     1.51530
Co2630     Co  0.62935948  0.31890923  0.65216031     1.51690
Co2631     Co  0.64806434  0.28125583  0.68669842     1.51570
Co2632     Co  0.69484310  0.38589073  0.66329255     1.51470
O2633       O  0.68625926  0.32574603  0.66171907    -1.42310
C2634       C  0.74154441  0.44523258  0.69374887     1.09240
C2635       C  0.57933646  0.26751825  0.70984784     1.09330
C2636       C  0.69315501  0.34338339  0.73089102     1.09270
C2637       C  0.60804224  0.37493380  0.63524227     1.09240
O2638       O  0.73438021  0.34795442  0.95911332    -0.80380
O2639       O  0.64030491  0.32659606  0.85880962    -0.80400
O2640       O  0.63848632  0.24910579  0.89686475    -0.80410
O2641       O  0.73985109  0.43256342  0.88935193    -0.80350
O2642       O  0.58553434  0.26115540  0.88650632    -0.80470
O2643       O  0.75586184  0.38495129  0.90226936    -0.80390
O2644       O  0.67290846  0.39579009  0.86017603    -0.80380
O2645       O  0.70714500  0.28829821  0.93505191    -0.80420
C2646       C  0.72961613  0.31057558  0.95593043     1.09310
C2647       C  0.66248862  0.36174118  0.84684506     1.09200
C2648       C  0.60594024  0.24007240  0.88193560     1.09330
C2649       C  0.76174918  0.41399846  0.88430613     1.09210
O2650       O  0.75098079  0.43109418  0.95311663    -0.80380
O2651       O  0.58325972  0.31911509  0.93470766    -0.80460
O2652       O  0.65458168  0.30520898  0.97579240    -0.80390
O2653       O  0.61524620  0.39068527  0.90363536    -0.80370
O2654       O  0.57262822  0.33434175  0.87807640    -0.80420
O2655       O  0.66888153  0.37011907  0.96438611    -0.80390
O2656       O  0.69518835  0.43874871  0.94267536    -0.80350
O2657       O  0.58571713  0.26096674  0.94333814    -0.80420
Co2658     Co  0.71278257  0.37910239  0.93398920     1.51530
Co2659     Co  0.61388910  0.32481362  0.89648023     1.51690
Co2660     Co  0.64820707  0.28016974  0.93558911     1.51570
Co2661     Co  0.67837524  0.40522846  0.90203819     1.51470
O2662       O  0.66759867  0.33773029  0.91246850    -1.42310
C2663       C  0.72965368  0.45089433  0.95757094     1.09240
C2664       C  0.56934745  0.28500924  0.94916626     1.09330
C2665       C  0.65757296  0.34099497  0.48288275     1.09270
C2666       C  0.58931080  0.37454562  0.88195667     1.09240
O2667       O  0.94324006  0.40176746  0.97902894    -0.80380
O2668       O  0.52635918  0.02271703  0.55753387    -0.80400
O2669       O  0.54583669  0.44045804  0.01771068    -0.80410
O2670       O  0.93519762  0.50880047  0.53233655    -0.80350
O2671       O  0.57736671  0.49931440  0.54288710    -0.80470
O2672       O  0.90962945  0.44429841  0.51389141    -0.80390
O2673       O  0.97283213  0.03314169  0.54644111    -0.80380
O2674       O  0.00710034  0.42198830  0.95952388    -0.80420
C2675       C  0.96703745  0.39535709  0.96036620     1.09310
C2676       C  0.49423087  0.02613441  0.56516005     1.09200
C2677       C  0.56384148  0.45916621  0.54133108     1.09330
C2678       C  0.90648271  0.46873782  0.53295782     1.09210
O2679       O  0.94581428  0.01541232  0.96845023    -0.80380
O2680       O  0.60148268  0.04717900  0.98372867    -0.80460
O2681       O  0.54035748  0.51176312  0.95261934    -0.80390
O2682       O  0.53763165  0.09121488  0.52797955    -0.80370
O2683       O  0.59636042  0.08660043  0.53584144    -0.80420
O2684       O  0.97578484  0.46923153  0.94038038    -0.80390
O2685       O  0.97089764  0.07580917  0.99320865    -0.80350
O2686       O  0.59669017  0.98642957  0.96611611    -0.80420
Co2687     Co  0.94727023  0.45957433  0.97848122     1.51530
Co2688     Co  0.55673120  0.03309249  0.51978862     1.51690
Co2689     Co  0.54272795  0.47613124  0.98427874     1.51570
Co2690     Co  0.99109866  0.03729579  0.50459557     1.51470
O2691       O  0.50085053  0.98550967  0.00554046    -1.42310
C2692       C  0.95271817  0.05444818  0.97070173     1.09240
C2693       C  0.61661814  0.02735812  0.96658727     1.09330
C2694       C  0.01348780  0.49425924  0.93362828     1.09270
C2695       C  0.57511407  0.10672133  0.53945115     1.09240
O2696       O  0.92829530  0.40448479  0.73347612    -0.80380
O2697       O  0.50395358  0.97701734  0.79748858    -0.80400
O2698       O  0.54155606  0.45141395  0.76431266    -0.80410
O2699       O  0.91915971  0.51665867  0.78228291    -0.80350
O2700       O  0.58679016  0.51125057  0.78496164    -0.80470
O2701       O  0.89602481  0.44855295  0.77092059    -0.80390
O2702       O  0.98172429  0.02101627  0.80918881    -0.80380
O2703       O  0.99065412  0.42386156  0.71089838    -0.80420
C2704       C  0.95094628  0.39711448  0.71429490     1.09310
C2705       C  0.49332050  0.99462268  0.81652835     1.09200
C2706       C  0.57053758  0.47062529  0.78374096     1.09330
C2707       C  0.89446566  0.47668041  0.78796829     1.09210
O2708       O  0.91680754  0.01072124  0.72067116    -0.80380
O2709       O  0.58256460  0.04894761  0.73189958    -0.80460
O2710       O  0.51863651  0.51074562  0.69760005    -0.80390
O2711       O  0.50246819  0.09463420  0.78575188    -0.80370
O2712       O  0.55290287  0.07366023  0.78915276    -0.80420
O2713       O  0.95053367  0.46678825  0.69092362    -0.80390
O2714       O  0.97851760  0.06520661  0.72940561    -0.80350
O2715       O  0.57975602  0.99130783  0.71123175    -0.80420
Co2716     Co  0.92534428  0.45890279  0.73067227     1.51530
Co2717     Co  0.54016109  0.01422875  0.76641744     1.51690
Co2718     Co  0.52695625  0.48165549  0.73054910     1.51570
Co2719     Co  0.98183239  0.04096407  0.76824304     1.51470
O2720       O  0.48164194  0.99190830  0.75007495    -1.42310
C2721       C  0.94504064  0.04932144  0.71472932     1.09240
C2722       C  0.59899703  0.03197007  0.71348146     1.09330
C2723       C  0.98733605  0.49265878  0.68157902     1.09270
C2724       C  0.53774538  0.10047241  0.79563447     1.09240
C2725       C  0.51205053  0.45929571  0.88835138    -0.12510
C2726       C  0.52533498  0.49802353  0.90340489     0.04500
C2727       C  0.03757382  0.03626222  0.88856820    -0.07800
C2728       C  0.02955250  0.03331878  0.85901848    -0.08540
C2729       C  0.50609108  0.99356177  0.84570010    -0.03090
C2730       C  0.50077401  0.45593712  0.85925935     0.03730
N2731       N  0.48122045  0.41436472  0.84537233     0.66230
H2732       H  0.50498346  0.43060438  0.90040226     0.15130
H2733       H  0.03960664  0.06214211  0.84671601     0.14840
N2734       N  0.05579585  0.07730770  0.90304509     0.73940
O2735       O  0.48565387  0.38427436  0.85598377    -0.39510
O2736       O  0.45560739  0.40578773  0.82490212    -0.39460
O2737       O  0.08159625  0.11060997  0.88926476    -0.40160
O2738       O  0.04440083  0.08115633  0.92894678    -0.40230
C2739       C  0.47204881  0.47639901  0.60309953    -0.12510
C2740       C  0.48052134  0.01732668  0.59491901     0.04500
C2741       C  0.99361064  0.05104566  0.61533008    -0.07800
C2742       C  0.99869823  0.04256396  0.64396141    -0.08540
C2743       C  0.49266328  0.50244498  0.65140659    -0.03090
C2744       C  0.48229067  0.46971362  0.63067386     0.03730
N2745       N  0.48743224  0.43266748  0.63608315     0.66230
H2746       H  0.46456364  0.45190308  0.58641927     0.15130
H2747       H  0.00667680  0.06690512  0.66074829     0.14840
N2748       N  0.00266379  0.09355701  0.60742893     0.73940
O2749       O  0.47367066  0.40197899  0.61810363    -0.39510
O2750       O  0.51413588  0.43494174  0.65424558    -0.39460
O2751       O  0.99545038  0.10142804  0.58204545    -0.40160
O2752       O  0.51411639  0.12262018  0.62660508    -0.40230
C2753       C  0.56247014  0.37956066  0.83302143    -0.12510
C2754       C  0.58373533  0.40077677  0.85835318     0.04500
C2755       C  0.60303146  0.44575953  0.85813806    -0.07800
C2756       C  0.59959622  0.46780489  0.83350361    -0.08540
C2757       C  0.57760219  0.44622323  0.80818308    -0.03090
C2758       C  0.55925249  0.40122020  0.80851674     0.03730
N2759       N  0.54023112  0.37627050  0.78334368     0.66230
H2760       H  0.54914689  0.34525057  0.83139840     0.15130
H2761       H  0.61329913  0.50200996  0.83447912     0.14840
N2762       N  0.62682382  0.46949603  0.88252358     0.73940
O2763       O  0.55423939  0.35167198  0.77403714    -0.39510
O2764       O  0.50309440  0.36825108  0.77722505    -0.39460
O2765       O  0.66683007  0.48922144  0.88013705    -0.40160
O2766       O  0.60881916  0.96341981  0.90765911    -0.40230
C2767       C  0.55081927  0.16796934  0.86474063    -0.12510
C2768       C  0.59066373  0.20366839  0.86005897     0.04500
C2769       C  0.61398997  0.20418035  0.83401737    -0.07800
C2770       C  0.59762332  0.16960325  0.81398175    -0.08540
C2771       C  0.55712218  0.13468157  0.81846342    -0.03090
C2772       C  0.53347352  0.13417925  0.84441564     0.03730
N2773       N  0.49260140  0.09861366  0.85152182     0.66230
H2774       H  0.53223291  0.16669909  0.88402103     0.15130
H2775       H  0.61550542  0.17153873  0.79380175     0.14840
N2776       N  0.65051385  0.24230099  0.82480793     0.73940
O2777       O  0.48555421  0.08160273  0.87657720    -0.39510
O2778       O  0.96201766  0.08755190  0.83464245    -0.39460
O2779       O  0.68571479  0.24237226  0.82177915    -0.40160
O2780       O  0.64447370  0.26866839  0.81032448    -0.40230
C2781       C  0.82271046  0.46151172  0.81032500    -0.12510
C2782       C  0.86138768  0.46159326  0.81355899     0.04500
C2783       C  0.86543634  0.44384737  0.84034207    -0.07800
C2784       C  0.83055659  0.42349464  0.86059551    -0.08540
C2785       C  0.79403335  0.42809654  0.85869852    -0.03090
C2786       C  0.79110307  0.44911028  0.83315992     0.03730
N2787       N  0.75687871  0.45868834  0.82965652     0.66230
H2788       H  0.81759074  0.47243040  0.79018152     0.15130
H2789       H  0.83474384  0.40993186  0.88054206     0.14840
N2790       N  0.90597701  0.45521676  0.85134197     0.73940
O2791       O  0.75219894  0.48379358  0.84746196    -0.39510
O2792       O  0.74017027  0.45282368  0.80498540    -0.39460
O2793       O  0.92820894  0.99384176  0.85838686    -0.40160
O2794       O  0.91023400  0.42734212  0.86543701    -0.40230
C2795       C  0.71834905  0.35503275  0.77953492    -0.12510
C2796       C  0.69404704  0.36185497  0.75900069     0.04500
C2797       C  0.66617555  0.37806360  0.76749049    -0.07800
C2798       C  0.65688962  0.37800888  0.79727140    -0.08540
C2799       C  0.67580937  0.36370806  0.81732573    -0.03090
C2800       C  0.70893759  0.35474561  0.80909946     0.03730
N2801       N  0.73129073  0.34272689  0.82961940     0.66230
H2802       H  0.74125271  0.34467714  0.77260021     0.15130
H2803       H  0.63442843  0.38847207  0.80496865     0.14840
N2804       N  0.64826235  0.39548851  0.74714092     0.73940
O2805       O  0.76707214  0.34605666  0.82225032    -0.39510
O2806       O  0.71441741  0.32543820  0.85396821    -0.39460
O2807       O  0.65254002  0.39286162  0.71970522    -0.40160
O2808       O  0.63234949  0.41844882  0.75667004    -0.40230
C2809       C  0.68857555  0.39091526  0.52323563    -0.12510
C2810       C  0.65527605  0.35214755  0.51330771     0.04500
C2811       C  0.62431098  0.32432123  0.53333014    -0.07800
C2812       C  0.62806632  0.33594121  0.56246064    -0.08540
C2813       C  0.66578784  0.36947443  0.57267218    -0.03090
C2814       C  0.69491255  0.39958603  0.55309162     0.03730
N2815       N  0.73336831  0.43474602  0.56284288     0.66230
H2816       H  0.71333515  0.41107963  0.50811733     0.15130
H2817       H  0.60423763  0.31443363  0.57784177     0.14840
N2818       N  0.59167918  0.28262256  0.52575571     0.73940
O2819       O  0.76856221  0.44189642  0.55107485    -0.39510
O2820       O  0.73222262  0.45985745  0.58232803    -0.39460
O2821       O  0.60185610  0.25571270  0.51503417    -0.40160
O2822       O  0.55586151  0.26876861  0.53869474    -0.40230
C2823       C  0.59165351  0.45951007  0.59232093    -0.12510
C2824       C  0.57082223  0.43624928  0.56723028     0.04500
C2825       C  0.55618948  0.39183941  0.56858593    -0.07800
C2826       C  0.56623511  0.37299644  0.59198525    -0.08540
C2827       C  0.59040001  0.39661897  0.61556847    -0.03090
C2828       C  0.60002043  0.44028935  0.61683300     0.03730
N2829       N  0.61257642  0.46436300  0.64360790     0.66230
H2830       H  0.60070852  0.99320134  0.59324577     0.15130
H2831       H  0.55528424  0.33893173  0.59130160     0.14840
N2832       N  0.53113091  0.36438485  0.54631403     0.73940
O2833       O  0.60812484  0.99736323  0.64617532    -0.39510
O2834       O  0.61817849  0.44846489  0.66651164    -0.39460
O2835       O  0.53980520  0.33566968  0.53750705    -0.40160
O2836       O  0.49440042  0.35985381  0.54301240    -0.40230
C2837       C  0.62706943  0.18026954  0.60563103    -0.12510
C2838       C  0.60352410  0.20260893  0.60922147     0.04500
C2839       C  0.57313077  0.19571911  0.58736731    -0.07680
C2840       C  0.56970195  0.16943085  0.56273020    -0.08540
C2841       C  0.59024943  0.14427285  0.56070068    -0.03090
C2842       C  0.61964496  0.15051934  0.58265260     0.03730
N2843       N  0.64066257  0.12508860  0.58291638     0.66230
H2844       H  0.65055850  0.18469009  0.62151609     0.15130
H2845       H  0.54696099  0.16501572  0.54649034     0.14840
N2846       N  0.54063146  0.20851164  0.59163725     0.73940
O2847       O  0.67354678  0.13566755  0.56680415    -0.39510
O2848       O  0.62145383  0.08791224  0.59367987    -0.39460
O2849       O  0.54991003  0.24705888  0.59525825    -0.40160
O2850       O  0.50251307  0.18209025  0.58674957    -0.40230
C2851       C  0.87133420  0.47126837  0.58299485    -0.12510
C2852       C  0.87079537  0.44938958  0.55664412     0.04500
C2853       C  0.83742125  0.40648267  0.55460558    -0.07800
C2854       C  0.80408015  0.38938566  0.57633009    -0.08540
C2855       C  0.80275888  0.41346640  0.60057293    -0.03090
C2856       C  0.83783247  0.45339830  0.60479048     0.03730
N2857       N  0.84183380  0.47183581  0.63346739     0.66230
H2858       H  0.89907530  0.50086790  0.58728052     0.15130
H2859       H  0.77947127  0.35678865  0.57487655     0.14840
N2860       N  0.83946727  0.37816869  0.53263702     0.73940
O2861       O  0.85999190  0.46129248  0.65220062    -0.39510
O2862       O  0.81387947  0.48152476  0.64288335    -0.39460
O2863       O  0.85272407  0.35245626  0.53941660    -0.40160
O2864       O  0.83505192  0.38344525  0.50588918    -0.40230
C2865       C  0.90734061  0.04534534  0.92890677    -0.12510
C2866       C  0.94181248  0.07349951  0.94528508     0.04500
C2867       C  0.96589465  0.11625295  0.93472631    -0.07800
C2868       C  0.95149756  0.12909411  0.91007030    -0.08540
C2869       C  0.91662519  0.10048368  0.89374294    -0.03090
C2870       C  0.89290197  0.05837783  0.90468943     0.03730
N2871       N  0.85255118  0.02876413  0.89349294     0.66230
H2872       H  0.89043723  0.01227637  0.93578088     0.15130
H2873       H  0.96898754  0.16184568  0.90258301     0.14840
N2874       N  0.00688735  0.14604101  0.94574411     0.73940
O2875       O  0.83940615  0.48965835  0.89797619    -0.39510
O2876       O  0.82535855  0.04075443  0.88891914    -0.39460
O2877       O  0.52660806  0.13465077  0.96272815    -0.40160
O2878       O  0.02705203  0.18254087  0.93422726    -0.40230
C2879       C  0.72630461  0.08728855  0.92521307    -0.12510
C2880       C  0.71455830  0.08872103  0.89627129     0.04500
C2881       C  0.67120371  0.07409719  0.89115499    -0.07800
C2882       C  0.64080400  0.05586922  0.91477230    -0.08540
C2883       C  0.65192854  0.05211302  0.94362902    -0.03090
C2884       C  0.69602173  0.07094189  0.94906077     0.03730
N2885       N  0.71089263  0.07532979  0.97843368     0.66230
H2886       H  0.75972944  0.09969740  0.92926432     0.15130
H2887       H  0.60776790  0.04235917  0.91023782     0.14840
N2888       N  0.65726411  0.07508065  0.86195761     0.73940
O2889       O  0.74896688  0.08459347  0.98260139    -0.39510
O2890       O  0.68876305  0.07782632  0.99980443    -0.39460
O2891       O  0.67774725  0.07303497  0.83935117    -0.40160
O2892       O  0.62338018  0.07670207  0.85849537    -0.40230
C2893       C  0.97160490  0.34188520  0.92431900    -0.12510
C2894       C  0.94797138  0.36104362  0.93642561     0.04500
C2895       C  0.90827954  0.34954878  0.92318514    -0.07800
C2896       C  0.89483314  0.32107499  0.89866335    -0.08540
C2897       C  0.91817370  0.30102798  0.88760811    -0.03090
C2898       C  0.95644372  0.31116523  0.90156895     0.03730
N2899       N  0.98152112  0.29162570  0.89195701     0.66230
H2900       H  0.00281406  0.35116247  0.93206456     0.15130
H2901       H  0.86507743  0.31356545  0.88873559     0.14840
N2902       N  0.88116082  0.36665010  0.93373743     0.73940
O2903       O  0.49128313  0.29180988  0.86508579    -0.39510
O2904       O  0.99475776  0.27494641  0.91030698    -0.39460
O2905       O  0.89499301  0.40649998  0.93468091    -0.40160
O2906       O  0.84166357  0.34232137  0.93676957    -0.40230
C2907       C  0.79718376  0.51822660  0.75956086    -0.12510
C2908       C  0.76810238  0.03216126  0.76970839     0.04500
C2909       C  0.73184962  0.02005796  0.75263917    -0.07800
C2910       C  0.72432766  0.99228359  0.72819227    -0.08540
C2911       C  0.75302520  0.47749766  0.71867528    -0.03090
C2912       C  0.78948716  0.49046202  0.73523660     0.03730
N2913       N  0.81998425  0.47703104  0.72679321     0.66230
H2914       H  0.82712862  0.53020041  0.77029125     0.15130
H2915       H  0.69535240  0.98156197  0.71655527     0.14840
N2916       N  0.70274412  0.03617494  0.75923445     0.73940
O2917       O  0.83975509  0.48947203  0.70246045    -0.39510
O2918       O  0.81905822  0.44521724  0.73930246    -0.39460
O2919       O  0.71479408  0.07546413  0.75584713    -0.40160
O2920       O  0.66356715  0.01056487  0.76193435    -0.40230
C2921       C  0.98764455  0.27155849  0.75618228    -0.12510
C2922       C  0.98477589  0.24694207  0.78095820     0.04500
C2923       C  0.51357902  0.23022710  0.78165729    -0.07800
C2924       C  0.54267172  0.23655915  0.75827543    -0.08540
C2925       C  0.54590360  0.26102659  0.73352430    -0.03090
C2926       C  0.51928772  0.28073889  0.73342214     0.03730
N2927       N  0.52598963  0.31254836  0.71187629     0.66230
H2928       H  0.96652205  0.28534683  0.75508617     0.15130
H2929       H  0.56339120  0.22233451  0.75984480     0.14840
N2930       N  0.51276195  0.20500464  0.80577618     0.73940
O2931       O  0.02753470  0.30503314  0.68490786    -0.39510
O2932       O  0.53304351  0.34944814  0.71967754    -0.39460
O2933       O  0.48501281  0.16621702  0.80709187    -0.40160
O2934       O  0.53253735  0.22355227  0.82841499    -0.40230
C2935       C  0.74190688  0.19394766  0.74753855    -0.12510
C2936       C  0.76488589  0.22014816  0.77077989     0.04500
C2937       C  0.77987155  0.26477193  0.76820072    -0.07800
C2938       C  0.76866745  0.28078468  0.74358856    -0.08540
C2939       C  0.74397430  0.25381372  0.72099145    -0.03090
C2940       C  0.73267325  0.21015620  0.72243395     0.03730
N2941       N  0.71616704  0.18236281  0.69768364     0.66230
H2942       H  0.73259744  0.16021639  0.74823523     0.15130
H2943       H  0.77808593  0.31450314  0.74259534     0.14840
N2944       N  0.80501822  0.29407199  0.79048977     0.73940
O2945       O  0.72381386  0.15133758  0.69488725    -0.39510
O2946       O  0.70083029  0.19215732  0.67644656    -0.39460
O2947       O  0.83160053  0.33204217  0.78372097    -0.40160
O2948       O  0.79781422  0.28363529  0.81728871    -0.40230
C2949       C  0.83536980  0.19923543  0.96855674    -0.12510
C2950       C  0.84041268  0.17120398  0.98709278     0.04500
C2951       C  0.85726589  0.14485202  0.97634695    -0.07800
C2952       C  0.86717498  0.14662623  0.94654156    -0.08540
C2953       C  0.85798287  0.17131826  0.92753407    -0.03090
C2954       C  0.84138861  0.19787677  0.93829785     0.03730
N2955       N  0.82691478  0.22019357  0.91945382     0.66230
H2956       H  0.82429387  0.22054083  0.97774101     0.15130
H2957       H  0.87884467  0.12572834  0.93757493     0.14840
N2958       N  0.86214109  0.11460651  0.49443687     0.73940
O2959       O  0.82008231  0.24954317  0.92987877    -0.39510
O2960       O  0.81406334  0.20630381  0.89412578    -0.39460
O2961       O  0.84849373  0.10792170  0.52074122    -0.40160
O2962       O  0.88018874  0.09399798  0.48408907    -0.40230
C2963       C  0.83829882  0.13139540  0.69731041    -0.12510
C2964       C  0.82649672  0.15790465  0.68246635     0.04500
C2965       C  0.83136388  0.19627829  0.69566780    -0.07800
C2966       C  0.84810638  0.20682073  0.72360914    -0.08540
C2967       C  0.85876778  0.17967178  0.73873048    -0.03090
C2968       C  0.85509674  0.14203373  0.72526590     0.03730
N2969       N  0.86762917  0.11417529  0.73975642     0.66230
H2970       H  0.83730503  0.10385666  0.68606080     0.15130
H2971       H  0.84934344  0.23453590  0.73478206     0.14840
N2972       N  0.82046394  0.22515094  0.68079095     0.73940
O2973       O  0.86712665  0.08279771  0.72611036    -0.39510
O2974       O  0.88284887  0.12262132  0.76505199    -0.39460
O2975       O  0.79756732  0.21326325  0.65857019    -0.40160
O2976       O  0.83147053  0.26203714  0.69097687    -0.40230
C2977       C  0.92010605  0.05725464  0.66386267    -0.12510
C2978       C  0.93849085  0.07608655  0.69087761     0.04500
C2979       C  0.95067575  0.12047068  0.69392552    -0.07800
C2980       C  0.94030986  0.14222759  0.67220567    -0.08540
C2981       C  0.91910070  0.12171675  0.64656721    -0.03090
C2982       C  0.91012710  0.07933236  0.64219353     0.03730
N2983       N  0.89326673  0.06021804  0.61449605     0.66230
H2984       H  0.91636525  0.02621777  0.65901498     0.15130
H2985       H  0.94828426  0.17533079  0.67570455     0.14840
N2986       N  0.97229943  0.14401748  0.71925848     0.73940
O2987       O  0.91705623  0.07460289  0.59188880    -0.39510
O2988       O  0.85406391  0.04550484  0.61103215    -0.39460
O2989       O  0.00818234  0.14780191  0.72475583    -0.40160
O2990       O  0.96089243  0.16913528  0.73152256    -0.40230
C2991       C  0.66767806  0.04428995  0.68900995    -0.12510
C2992       C  0.63684101  0.05784535  0.69326823     0.04500
C2993       C  0.63836939  0.08920551  0.67374350    -0.07800
C2994       C  0.66935296  0.10462679  0.65030472    -0.08540
C2995       C  0.70016261  0.09078565  0.64601199    -0.03090
C2996       C  0.69825295  0.05942646  0.66561059     0.03730
N2997       N  0.72438012  0.03951145  0.66046628     0.66230
H2998       H  0.66549189  0.01886034  0.70260931     0.15130
H2999       H  0.67070631  0.12941244  0.63625694     0.14840
N3000       N  0.60894039  0.10578652  0.67719432     0.73940
O3001       O  0.75522504  0.54827263  0.67667677    -0.39510
O3002       O  0.71865298  0.01569993  0.63837332    -0.39460
O3003       O  0.60423458  0.12028270  0.70173929    -0.40160
O3004       O  0.59362699  0.11306032  0.65484093    -0.40230
C3005       C  0.89412327  0.33419632  0.64526379    -0.12510
C3006       C  0.90979596  0.30522954  0.64177273     0.04500
C3007       C  0.93270449  0.30136876  0.66558838    -0.07800
C3008       C  0.94264475  0.32929968  0.68999581    -0.08540
C3009       C  0.93040431  0.36119037  0.69214204    -0.03090
C3010       C  0.90359006  0.36162639  0.66994046     0.03730
N3011       N  0.88697920  0.39093770  0.67071598     0.66230
H3012       H  0.87437925  0.33579852  0.62840973     0.15130
H3013       H  0.95997863  0.32595684  0.70764506     0.14840
N3014       N  0.94458655  0.26813455  0.66625583     0.73940
O3015       O  0.88286789  0.40552743  0.64673026    -0.39510
O3016       O  0.86821409  0.39479516  0.69367681    -0.39460
O3017       O  0.97122868  0.26763746  0.64747539    -0.40160
O3018       O  0.93482960  0.24436539  0.68858731    -0.40230
C3019       C  0.70960492  0.48770267  0.99866641    -0.12510
C3020       C  0.74120121  0.48182108  0.98332713     0.04500
C3021       C  0.78126999  0.49822248  0.99666354    -0.07800
C3022       C  0.78870287  0.01998462  0.52373992    -0.08540
C3023       C  0.75803688  0.02810757  0.53808780    -0.03090
C3024       C  0.71732496  0.01000885  0.52588047     0.03730
N3025       N  0.68293719  0.01268092  0.54114320     0.66230
H3026       H  0.67807626  0.47322038  0.98993666     0.15130
H3027       H  0.81967229  0.03224870  0.53311540     0.14840
N3028       N  0.81571053  0.49505405  0.98213820     0.73940
O3029       O  0.64971860  0.00368697  0.52771024    -0.39510
O3030       O  0.68338761  0.01919336  0.56849904    -0.39460
O3031       O  0.82300654  0.00390844  0.95515729    -0.40160
O3032       O  0.84253405  0.49034711  0.99666140    -0.40230
C3033       C  0.97993830  0.28491516  0.49890552    -0.12510
C3034       C  0.96479123  0.24708337  0.51551138     0.04500
C3035       C  0.98161588  0.21886922  0.50738464    -0.07800
C3036       C  0.51471059  0.23208119  0.98539172    -0.08540
C3037       C  0.53316746  0.27242171  0.97174733    -0.03090
C3038       C  0.51725574  0.30040673  0.48071733     0.03730
N3039       N  0.54245105  0.34598851  0.47685206     0.66230
H3040       H  0.96641074  0.30588220  0.50347048     0.15130
H3041       H  0.52909622  0.21201722  0.98101279     0.14840
N3042       N  0.96751731  0.17768952  0.02095535     0.73940
O3043       O  0.52543879  0.36918554  0.48237893    -0.39510
O3044       O  0.58240167  0.36339524  0.97814343    -0.39460
O3045       O  0.93020126  0.15621591  0.03112564    -0.40160
O3046       O  0.98983687  0.15905317  0.51798671    -0.40230
C3047       C  0.76287281  0.28591933  0.53007918    -0.12510
C3048       C  0.76748657  0.25022908  0.52344845     0.04500
C3049       C  0.75387273  0.23088065  0.99556139    -0.07800
C3050       C  0.74546215  0.25290449  0.97334732    -0.08540
C3051       C  0.74414038  0.29109899  0.97927096    -0.03090
C3052       C  0.74963569  0.30534826  0.50906904     0.03730
N3053       N  0.73749996  0.33601918  0.51966353     0.66230
H3054       H  0.76854397  0.29799272  0.55225039     0.15130
H3055       H  0.73640368  0.23825301  0.95194510     0.14840
N3056       N  0.74101322  0.18652053  0.99127639     0.73940
O3057       O  0.71408032  0.32726290  0.54265681    -0.39510
O3058       O  0.75840849  0.37439782  0.01138643    -0.39460
O3059       O  0.71861341  0.16061260  0.01124385    -0.40160
O3060       O  0.74133803  0.17231637  0.96572548    -0.40230
O3061       O  0.79211744  0.66527752  0.02483911    -0.80380
O3062       O  0.92556825  0.68148594  0.11738727    -0.80400
O3063       O  0.91473710  0.76396693  0.04208389    -0.80410
O3064       O  0.79670535  0.56542309  0.08159070    -0.80350
O3065       O  0.92172958  0.71024135  0.06034304    -0.80470
O3066       O  0.76335361  0.59344056  0.05738644    -0.80390
O3067       O  0.86469651  0.62113588  0.11565870    -0.80380
O3068       O  0.85587917  0.68224671  0.03607222    -0.80420
C3069       C  0.82848980  0.67159357  0.51746109     1.09310
C3070       C  0.90323048  0.64268467  0.12508776     1.09200
C3071       C  0.93350010  0.74098357  0.04101767     1.09330
C3072       C  0.77205497  0.56260496  0.06119180     1.09210
O3073       O  0.73257369  0.63456076  0.10273775    -0.80380
O3074       O  0.91488710  0.75213847  0.11253187    -0.80460
O3075       O  0.82682357  0.74494922  0.04160658    -0.80390
O3076       O  0.80693130  0.62252320  0.13547228    -0.80370
O3077       O  0.85896394  0.68816583  0.13898238    -0.80420
O3078       O  0.76474039  0.70735659  0.06490174    -0.80390
O3079       O  0.76660399  0.60290751  0.12103919    -0.80350
O3080       O  0.87257145  0.77273510  0.09566116    -0.80420
Co3081     Co  0.76766869  0.65291789  0.06523894     1.51530
Co3082     Co  0.88370371  0.69278762  0.09980492     1.51690
Co3083     Co  0.86408587  0.72763251  0.06463084     1.51570
Co3084     Co  0.81742592  0.62496800  0.09112114     1.51470
O3085       O  0.82498534  0.68398453  0.08907524    -1.42310
C3086       C  0.73430607  0.60988212  0.12179030     1.09240
C3087       C  0.89870527  0.77635931  0.11512620     1.09330
C3088       C  0.78741212  0.73446275  0.04517708     1.09270
C3089       C  0.82921542  0.65594900  0.15083897     1.09240
O3090       O  0.81641478  0.64924294  0.27883716    -0.80380
O3091       O  0.92152833  0.65655652  0.36319046    -0.80400
O3092       O  0.91219917  0.72868076  0.29998534    -0.80410
O3093       O  0.80501570  0.55933864  0.31493260    -0.80350
O3094       O  0.95702938  0.72622686  0.33067433    -0.80470
O3095       O  0.75895276  0.58163171  0.30390427    -0.80390
O3096       O  0.87770078  0.59325985  0.34909784    -0.80380
O3097       O  0.87573671  0.70909308  0.28744806    -0.80420
C3098       C  0.85120675  0.67923088  0.26995179     1.09310
C3099       C  0.90578599  0.61690813  0.36671864     1.09200
C3100       C  0.95084154  0.73575509  0.30525492     1.09330
C3101       C  0.77741012  0.55893587  0.29766768     1.09210
O3102       O  0.75951260  0.63524852  0.35676990    -0.80380
O3103       O  0.90169978  0.73051312  0.36796726    -0.80460
O3104       O  0.81524828  0.71882889  0.30479504    -0.80390
O3105       O  0.83620399  0.62198557  0.39058952    -0.80370
O3106       O  0.88370873  0.69112751  0.37871073    -0.80420
O3107       O  0.75245517  0.65998535  0.30017259    -0.80390
O3108       O  0.76081130  0.57532733  0.36407097    -0.80350
O3109       O  0.88488201  0.77000319  0.34032656    -0.80420
Co3110     Co  0.78990253  0.64367457  0.31725360     1.51530
Co3111     Co  0.89901590  0.68429072  0.33663736     1.51690
Co3112     Co  0.85803706  0.70878081  0.33042855     1.51570
Co3113     Co  0.82081318  0.58973938  0.35370560     1.51470
O3114       O  0.83802288  0.64445804  0.33249668    -1.42310
C3115       C  0.74732007  0.60120661  0.37156899     1.09240
C3116       C  0.90129321  0.76662239  0.36388424     1.09330
C3117       C  0.77725236  0.69931049  0.29416906     1.09270
C3118       C  0.85887670  0.66132737  0.39698891     1.09240
O3119       O  0.74572209  0.79797401  0.18038823    -0.80380
O3120       O  0.65469079  0.82844760  0.11337385    -0.80400
O3121       O  0.63762545  0.73702113  0.15507204    -0.80410
O3122       O  0.74207101  0.90704648  0.13041600    -0.80350
O3123       O  0.59893581  0.76026830  0.13511742    -0.80470
O3124       O  0.77387378  0.86966575  0.14277135    -0.80390
O3125       O  0.69821587  0.89575236  0.11935427    -0.80380
O3126       O  0.68537189  0.76170105  0.20628223    -0.80420
C3127       C  0.72378787  0.77042679  0.20026087     1.09310
C3128       C  0.67498454  0.86488584  0.10263777     1.09200
C3129       C  0.61315190  0.73391917  0.13460676     1.09330
C3130       C  0.77025871  0.89466684  0.12520012     1.09210
O3131       O  0.75220808  0.91491016  0.19420866    -0.80380
O3132       O  0.59328789  0.79981640  0.19180839    -0.80460
O3133       O  0.65936367  0.82502809  0.21741271    -0.80390
O3134       O  0.64641664  0.89606565  0.14491950    -0.80370
O3135       O  0.58827594  0.83438755  0.13812130    -0.80420
O3136       O  0.72533916  0.84142819  0.22187723    -0.80390
O3137       O  0.71618588  0.94392149  0.17463772    -0.80350
O3138       O  0.59768585  0.74416954  0.20926152    -0.80420
Co3139     Co  0.74543140  0.85400216  0.18202415     1.51530
Co3140     Co  0.62936535  0.81891421  0.15214010     1.51690
Co3141     Co  0.64806752  0.78125356  0.18668259     1.51570
Co3142     Co  0.69484169  0.88589251  0.16328923     1.51470
O3143       O  0.68626245  0.82575012  0.16170534    -1.42310
C3144       C  0.74153863  0.94522885  0.19375147     1.09240
C3145       C  0.57933118  0.76751218  0.20982619     1.09330
C3146       C  0.69314881  0.84337534  0.23087743     1.09270
C3147       C  0.60803645  0.87493095  0.13523609     1.09240
O3148       O  0.73437750  0.84796080  0.45911509    -0.80380
O3149       O  0.64032419  0.82655501  0.35880278    -0.80400
O3150       O  0.63847067  0.74907030  0.39689063    -0.80410
O3151       O  0.73983260  0.93253744  0.38933295    -0.80350
O3152       O  0.58552750  0.76111971  0.38650324    -0.80470
O3153       O  0.75585347  0.88493536  0.40225857    -0.80390
O3154       O  0.67288268  0.89574890  0.36016271    -0.80380
O3155       O  0.70713742  0.78829577  0.43506511    -0.80420
C3156       C  0.72961369  0.81058028  0.45593857     1.09310
C3157       C  0.66248573  0.86170140  0.34683501     1.09200
C3158       C  0.60593241  0.74003414  0.38195045     1.09330
C3159       C  0.76173821  0.91397910  0.38429242     1.09210
O3160       O  0.75097753  0.93110126  0.45309175    -0.80380
O3161       O  0.58321519  0.81906652  0.43466731    -0.80460
O3162       O  0.65458294  0.80523606  0.47580580    -0.80390
O3163       O  0.61522688  0.89065388  0.40361720    -0.80370
O3164       O  0.57264145  0.83431416  0.37803727    -0.80420
O3165       O  0.66887726  0.87013467  0.46437142    -0.80390
O3166       O  0.69518133  0.93874963  0.44265030    -0.80350
O3167       O  0.58571286  0.76095654  0.44335611    -0.80420
Co3168     Co  0.71277623  0.87909762  0.43397768     1.51530
Co3169     Co  0.61388161  0.82477557  0.39646029     1.51690
Co3170     Co  0.64819934  0.78016364  0.43560679     1.51570
Co3171     Co  0.67835715  0.90520159  0.40202362     1.51470
O3172       O  0.66758474  0.83770866  0.41246920    -1.42310
C3173       C  0.72965087  0.95090267  0.45754251     1.09240
C3174       C  0.56932391  0.78498873  0.44915454     1.09330
C3175       C  0.65757982  0.84101215  0.98287607     1.09270
C3176       C  0.58930154  0.87451445  0.38193258     1.09240
O3177       O  0.94325878  0.90177091  0.47903114    -0.80380
O3178       O  0.52633988  0.52269943  0.05754478    -0.80400
O3179       O  0.54583180  0.94048554  0.51770996    -0.80410
O3180       O  0.93519242  0.00879935  0.03231847    -0.80350
O3181       O  0.57735481  0.99931999  0.04289122    -0.80470
O3182       O  0.90962313  0.94429600  0.01387675    -0.80390
O3183       O  0.97278811  0.53312157  0.04643856    -0.80380
O3184       O  0.00711379  0.92199112  0.45951608    -0.80420
C3185       C  0.96705091  0.89535897  0.46036425     1.09310
C3186       C  0.49421498  0.52613097  0.06515963     1.09200
C3187       C  0.56382455  0.95917096  0.04133990     1.09330
C3188       C  0.90647483  0.96873677  0.03293963     1.09210
O3189       O  0.94581024  0.51541535  0.46846613    -0.80380
O3190       O  0.60149811  0.54717425  0.48371628    -0.80460
O3191       O  0.54035301  0.01179303  0.45261286    -0.80390
O3192       O  0.53765186  0.59120051  0.02796875    -0.80370
O3193       O  0.59636182  0.58656139  0.03585390    -0.80420
O3194       O  0.97579022  0.96923075  0.44038037    -0.80390
O3195       O  0.97088058  0.57580973  0.49322529    -0.80350
O3196       O  0.59670311  0.48642682  0.46609895    -0.80420
Co3197     Co  0.94728902  0.95957863  0.47848602     1.51530
Co3198     Co  0.55672427  0.53305984  0.01980307     1.51690
Co3199     Co  0.54272405  0.97615860  0.48427181     1.51570
Co3200     Co  0.99107047  0.53728617  0.00459657     1.51470
O3201       O  0.50087205  0.48551231  0.50553654    -1.42310
C3202       C  0.95270584  0.55444731  0.47071750     1.09240
C3203       C  0.61663016  0.52735544  0.46656964     1.09330
C3204       C  0.01349149  0.99425616  0.43362186     1.09270
C3205       C  0.57513144  0.60670065  0.03944609     1.09240
O3206       O  0.92830020  0.90449229  0.23346316    -0.80380
O3207       O  0.50394913  0.47700223  0.29748181    -0.80400
O3208       O  0.54154684  0.95142197  0.26431305    -0.80410
O3209       O  0.91915716  0.01665869  0.28227393    -0.80350
O3210       O  0.58677823  0.01125261  0.28496948    -0.80470
O3211       O  0.89602433  0.94855519  0.27090862    -0.80390
O3212       O  0.98172259  0.52102563  0.30918742    -0.80380
O3213       O  0.99065667  0.92386400  0.21088512    -0.80420
C3214       C  0.95094432  0.89712746  0.21427271     1.09310
C3215       C  0.49331083  0.49460332  0.31652173     1.09200
C3216       C  0.57052293  0.97062734  0.28374491     1.09330
C3217       C  0.89446334  0.97667987  0.28795782     1.09210
O3218       O  0.91680575  0.51074724  0.22066656    -0.80380
O3219       O  0.58256273  0.54894243  0.23189721    -0.80460
O3220       O  0.51865980  0.01076899  0.19759871    -0.80390
O3221       O  0.50246270  0.59461976  0.28575042    -0.80370
O3222       O  0.55289648  0.57364556  0.28915149    -0.80420
O3223       O  0.95051752  0.96677570  0.19090782    -0.80390
O3224       O  0.97851109  0.56523463  0.22940905    -0.80350
O3225       O  0.57976110  0.49130777  0.21122577    -0.80420
Co3226     Co  0.92534150  0.95890484  0.23065936     1.51530
Co3227     Co  0.54015846  0.51421802  0.26641288     1.51690
Co3228     Co  0.52696333  0.98167238  0.23054902     1.51570
Co3229     Co  0.98182783  0.54098059  0.26824298     1.51470
O3230       O  0.48164185  0.49189909  0.25006599    -1.42310
C3231       C  0.94503754  0.54935056  0.21472862     1.09240
C3232       C  0.59900038  0.53196944  0.21347967     1.09330
C3233       C  0.98732146  0.99264420  0.18156261     1.09270
C3234       C  0.53773857  0.60045673  0.29563453     1.09240
C3235       C  0.51203796  0.95931140  0.38834888    -0.12510
C3236       C  0.52533123  0.99804355  0.40339850     0.04500
C3237       C  0.03758041  0.53626202  0.38856171    -0.07800
C3238       C  0.02956724  0.53332074  0.35901042    -0.08540
C3239       C  0.50607956  0.49354167  0.34569406    -0.03090
C3240       C  0.50077271  0.95595325  0.35925426     0.03730
N3241       N  0.48121796  0.91438107  0.34536767     0.66230
H3242       H  0.50495866  0.93061971  0.40040206     0.15130
H3243       H  0.03963527  0.56214489  0.34670638     0.14840
N3244       N  0.05581045  0.57730699  0.40303872     0.73940
O3245       O  0.48566742  0.88429618  0.35597124    -0.39510
O3246       O  0.45559455  0.90579981  0.32490376    -0.39460
O3247       O  0.08164142  0.61060268  0.38926533    -0.40160
O3248       O  0.04438288  0.58116411  0.42892925    -0.40230
C3249       C  0.47207835  0.97638259  0.10310649    -0.12510
C3250       C  0.48049297  0.51733936  0.09491778     0.04500
C3251       C  0.99352784  0.55101714  0.11532499    -0.07800
C3252       C  0.99864237  0.54255425  0.14395481    -0.08540
C3253       C  0.49268509  0.00246537  0.15140686    -0.03090
C3254       C  0.48235311  0.96973362  0.13067958     0.03730
N3255       N  0.48753966  0.93271585  0.13609865     0.66230
H3256       H  0.46462220  0.95188604  0.08643025     0.15130
H3257       H  0.00661311  0.56689824  0.16073871     0.14840
N3258       N  0.00254388  0.59351606  0.10742055     0.73940
O3259       O  0.47380095  0.90201626  0.11812783    -0.39510
O3260       O  0.51424488  0.93502184  0.15427063    -0.39460
O3261       O  0.99530083  0.60136969  0.08204052    -0.40160
O3262       O  0.51421069  0.62265192  0.12660538    -0.40230
C3263       C  0.56246859  0.87954556  0.33299843    -0.12510
C3264       C  0.58371738  0.90075035  0.35833810     0.04500
C3265       C  0.60299204  0.94573176  0.35813975    -0.07800
C3266       C  0.59955657  0.96778675  0.33351170    -0.08540
C3267       C  0.57758111  0.94621658  0.30818279    -0.03090
C3268       C  0.55924429  0.90121442  0.30850208     0.03730
N3269       N  0.54021775  0.87627593  0.28332535     0.66230
H3270       H  0.54916457  0.84523889  0.33136226     0.15130
H3271       H  0.61324089  0.00198908  0.33449940     0.14840
N3272       N  0.62676247  0.96945736  0.38253612     0.73940
O3273       O  0.55422622  0.85168440  0.27400388    -0.39510
O3274       O  0.50307784  0.86825636  0.27721586    -0.39460
O3275       O  0.66677038  0.98917502  0.38016830    -0.40160
O3276       O  0.60884180  0.46342534  0.40766054    -0.40230
C3277       C  0.55080531  0.66794390  0.36474526    -0.12510
C3278       C  0.59066264  0.70362970  0.36007574     0.04500
C3279       C  0.61399851  0.70413744  0.33404088    -0.07800
C3280       C  0.59762601  0.66957087  0.31399711    -0.08540
C3281       C  0.55711326  0.63466182  0.31846671    -0.03090
C3282       C  0.53345808  0.63416097  0.34441505     0.03730
N3283       N  0.49258130  0.59859876  0.35151513     0.66230
H3284       H  0.53221413  0.66667652  0.38402276     0.15130
H3285       H  0.61551808  0.67150293  0.29382284     0.14840
N3286       N  0.65055239  0.74224413  0.32484999     0.73940
O3287       O  0.48552821  0.58157556  0.37656663    -0.39510
O3288       O  0.96203476  0.58752951  0.33466227    -0.39460
O3289       O  0.68575576  0.74230583  0.32190106    -0.40160
O3290       O  0.64456618  0.76860051  0.31031061    -0.40230
C3291       C  0.82270241  0.96149576  0.31031408    -0.12510
C3292       C  0.86138305  0.96158790  0.31354777     0.04500
C3293       C  0.86543166  0.94384061  0.34033093    -0.07800
C3294       C  0.83054881  0.92347910  0.36058129    -0.08540
C3295       C  0.79402443  0.92807938  0.35868549    -0.03090
C3296       C  0.79109272  0.94909197  0.33314596     0.03730
N3297       N  0.75686385  0.95866235  0.32964087     0.66230
H3298       H  0.81757662  0.97241689  0.29015599     0.15130
H3299       H  0.83473567  0.90991364  0.38052802     0.14840
N3300       N  0.90597262  0.95521798  0.35133383     0.73940
O3301       O  0.75217958  0.98376749  0.34744371    -0.39510
O3302       O  0.74015489  0.95279147  0.30496928    -0.39460
O3303       O  0.92821483  0.49385992  0.35838413    -0.40160
O3304       O  0.91023260  0.92735019  0.36543530    -0.40230
C3305       C  0.71834753  0.85502105  0.27951992    -0.12510
C3306       C  0.69403941  0.86184045  0.25898901     0.04500
C3307       C  0.66616175  0.87803868  0.26748387    -0.07800
C3308       C  0.65687426  0.87797174  0.29726520    -0.08540
C3309       C  0.67580047  0.86367134  0.31731510    -0.03090
C3310       C  0.70893560  0.85472273  0.30908485     0.03730
N3311       N  0.73130105  0.84271401  0.32960123     0.66230
H3312       H  0.74125920  0.84467841  0.27258204     0.15130
H3313       H  0.63440923  0.88842771  0.30496604     0.14840
N3314       N  0.64824856  0.89547028  0.24713959     0.73940
O3315       O  0.76708682  0.84605809  0.32222853    -0.39510
O3316       O  0.71444066  0.82543079  0.35395386    -0.39460
O3317       O  0.65251928  0.89284517  0.21970305    -0.40160
O3318       O  0.63234639  0.91843729  0.25667425    -0.40230
C3319       C  0.68863560  0.89093497  0.02322238    -0.12510
C3320       C  0.65531008  0.85218053  0.01330041     0.04500
C3321       C  0.62432871  0.82438413  0.03332473    -0.07800
C3322       C  0.62808525  0.83602155  0.06245196    -0.08540
C3323       C  0.66582277  0.86953179  0.07266235    -0.03090
C3324       C  0.69497384  0.89961722  0.05307823     0.03730
N3325       N  0.73344935  0.93475516  0.06282695     0.66230
H3326       H  0.71340516  0.91107603  0.00810077     0.15130
H3327       H  0.60424205  0.81453676  0.07783503     0.14840
N3328       N  0.59167288  0.78269661  0.02575436     0.73940
O3329       O  0.76862824  0.94190151  0.05103392    -0.39510
O3330       O  0.73233411  0.95986829  0.08232258    -0.39460
O3331       O  0.60182041  0.75576227  0.01503947    -0.40160
O3332       O  0.55585359  0.76887574  0.03868554    -0.40230
C3333       C  0.59164774  0.95951950  0.09232865    -0.12510
C3334       C  0.57080964  0.93626000  0.06724008     0.04500
C3335       C  0.55617597  0.89185342  0.06859459    -0.07800
C3336       C  0.56620871  0.87300095  0.09199266    -0.08540
C3337       C  0.59038765  0.89662098  0.11557204    -0.03090
C3338       C  0.60002112  0.94029590  0.11683676     0.03730
N3339       N  0.61260174  0.96437474  0.14360802     0.66230
H3340       H  0.60073685  0.49315485  0.09322599     0.15130
H3341       H  0.55525068  0.83893509  0.09130169     0.14840
N3342       N  0.53116340  0.86441700  0.04630346     0.73940
O3343       O  0.60816836  0.49735701  0.14615317    -0.39510
O3344       O  0.61819189  0.94846971  0.16651281    -0.39460
O3345       O  0.53998352  0.83583446  0.03741749    -0.40160
O3346       O  0.49436301  0.85972933  0.04306297    -0.40230
C3347       C  0.62709037  0.68026326  0.10561874    -0.12510
C3348       C  0.60356017  0.70261960  0.10919521     0.04500
C3349       C  0.57318839  0.69574510  0.08732834    -0.07680
C3350       C  0.56976756  0.66945813  0.06269154    -0.08540
C3351       C  0.59028532  0.64427082  0.06068193    -0.03090
C3352       C  0.61966413  0.65050610  0.08264458     0.03730
N3353       N  0.64065865  0.62505439  0.08292485     0.66230
H3354       H  0.65056559  0.68467395  0.12151251     0.15130
H3355       H  0.54704222  0.66505555  0.04644204     0.14840
N3356       N  0.54069422  0.70854488  0.09158872     0.73940
O3357       O  0.67351876  0.63558349  0.06679550    -0.39510
O3358       O  0.62143721  0.58789528  0.09371523    -0.39460
O3359       O  0.54997885  0.74709450  0.09520336    -0.40160
O3360       O  0.50257231  0.68212189  0.08671233    -0.40230
C3361       C  0.87129530  0.97130353  0.08294906    -0.12510
C3362       C  0.87078505  0.94938879  0.05662410     0.04500
C3363       C  0.83744670  0.90645743  0.05461738    -0.07800
C3364       C  0.80411292  0.88936550  0.07634808    -0.08540
C3365       C  0.80275989  0.91347568  0.10056359    -0.03090
C3366       C  0.83780035  0.95344163  0.10474940     0.03730
N3367       N  0.84179684  0.97192465  0.13340895     0.66230
H3368       H  0.89901656  0.00092940  0.08721163     0.15130
H3369       H  0.77953630  0.85674946  0.07492211     0.14840
N3370       N  0.83952441  0.87812013  0.03268044     0.73940
O3371       O  0.86001416  0.96146869  0.15215010    -0.39510
O3372       O  0.81382652  0.98159882  0.14281293    -0.39460
O3373       O  0.85274035  0.85239232  0.03950579    -0.40160
O3374       O  0.83510457  0.88333571  0.00592258    -0.40230
C3375       C  0.90733508  0.54532956  0.42891740    -0.12510
C3376       C  0.94180026  0.57349130  0.44529778     0.04500
C3377       C  0.96588169  0.61624138  0.43473478    -0.07800
C3378       C  0.95148896  0.62907334  0.41007256    -0.08540
C3379       C  0.91661523  0.60045781  0.39374800    -0.03090
C3380       C  0.89289265  0.55835432  0.40469880     0.03730
N3381       N  0.85253880  0.52873684  0.39350751     0.66230
H3382       H  0.89044006  0.51226040  0.43579116     0.15130
H3383       H  0.96898511  0.66182080  0.40257749     0.14840
N3384       N  0.00687108  0.64603358  0.44575439     0.73940
O3385       O  0.83944525  0.98964837  0.39795215    -0.39510
O3386       O  0.82535232  0.54073016  0.38891954    -0.39460
O3387       O  0.52662575  0.63465532  0.46271382    -0.40160
O3388       O  0.02702983  0.68253570  0.43423997    -0.40230
C3389       C  0.72630779  0.58728798  0.42518209    -0.12510
C3390       C  0.71455608  0.58871854  0.39624143     0.04500
C3391       C  0.67120004  0.57409665  0.39113045    -0.07800
C3392       C  0.64080478  0.55586913  0.41475129    -0.08540
C3393       C  0.65193513  0.55211270  0.44360663    -0.03090
C3394       C  0.69602994  0.57094376  0.44903283     0.03730
N3395       N  0.71090732  0.57533852  0.47840393     0.66230
H3396       H  0.75973329  0.59969626  0.42923031     0.15130
H3397       H  0.60776755  0.54235894  0.41022058     0.14840
N3398       N  0.65725424  0.57508163  0.36193523     0.73940
O3399       O  0.74897902  0.58458982  0.48256859    -0.39510
O3400       O  0.68879069  0.57786092  0.49977350    -0.39460
O3401       O  0.67773812  0.57304762  0.33932551    -0.40160
O3402       O  0.62336387  0.57669235  0.35847796    -0.40230
C3403       C  0.97161276  0.84188471  0.42431548    -0.12510
C3404       C  0.94797849  0.86103949  0.43642726     0.04500
C3405       C  0.90827982  0.84953621  0.42319395    -0.07800
C3406       C  0.89482565  0.82105478  0.39867615    -0.08540
C3407       C  0.91816643  0.80101000  0.38761716    -0.03090
C3408       C  0.95644576  0.81115973  0.40156865     0.03730
N3409       N  0.98153029  0.79163366  0.39194573     0.66230
H3410       H  0.00282809  0.85117076  0.43205297     0.15130
H3411       H  0.86506535  0.81353981  0.38875334     0.14840
N3412       N  0.88116340  0.86663934  0.43374787     0.73940
O3413       O  0.49128175  0.79186800  0.36503814    -0.39510
O3414       O  0.99477352  0.77494927  0.41028716    -0.39460
O3415       O  0.89499637  0.90648948  0.43468873    -0.40160
O3416       O  0.84166637  0.84231148  0.43678325    -0.40230
C3417       C  0.79718343  0.01822005  0.25956296    -0.12510
C3418       C  0.76811470  0.53214484  0.26968656     0.04500
C3419       C  0.73186078  0.52004315  0.25261857    -0.07800
C3420       C  0.72433728  0.49227114  0.22817035    -0.08540
C3421       C  0.75301820  0.97748927  0.21868068    -0.03090
C3422       C  0.78948611  0.99045958  0.23523608     0.03730
N3423       N  0.81999073  0.97704346  0.22678130     0.66230
H3424       H  0.82713111  0.03019515  0.27029071     0.15130
H3425       H  0.69536204  0.48155223  0.21653358     0.14840
N3426       N  0.70275304  0.53615600  0.25921856     0.73940
O3427       O  0.83975282  0.98949571  0.20244646    -0.39510
O3428       O  0.81907768  0.94522968  0.23928143    -0.39460
O3429       O  0.71479487  0.57544247  0.25582503    -0.40160
O3430       O  0.66357855  0.51054178  0.26193223    -0.40230
C3431       C  0.98768075  0.77155143  0.25622797    -0.12510
C3432       C  0.98480703  0.74693654  0.28100448     0.04500
C3433       C  0.51358108  0.73023106  0.28164213    -0.07800
C3434       C  0.54267140  0.73656225  0.25825793    -0.08540
C3435       C  0.54589625  0.76102132  0.23350304    -0.03090
C3436       C  0.51927436  0.78072809  0.23339979     0.03730
N3437       N  0.52596407  0.81252922  0.21184886     0.66230
H3438       H  0.96655850  0.78533942  0.25512430     0.15130
H3439       H  0.56339498  0.72234253  0.25982831     0.14840
N3440       N  0.51277105  0.70501369  0.30576256     0.73940
O3441       O  0.02755734  0.80497702  0.18495763    -0.39510
O3442       O  0.53297937  0.84941874  0.21964634    -0.39460
O3443       O  0.48501546  0.66622907  0.30708896    -0.40160
O3444       O  0.53257772  0.72356363  0.32839070    -0.40230
C3445       C  0.74199365  0.69395577  0.24747674    -0.12510
C3446       C  0.76492328  0.72013772  0.27074067     0.04500
C3447       C  0.77986031  0.76475562  0.26819111    -0.07800
C3448       C  0.76864785  0.78077695  0.24358781    -0.08540
C3449       C  0.74399328  0.75382129  0.22097109    -0.03090
C3450       C  0.73275348  0.71017675  0.22238047     0.03730
N3451       N  0.71630728  0.68241870  0.19760653     0.66230
H3452       H  0.73272870  0.66023355  0.24815088     0.15130
H3453       H  0.77803310  0.81448863  0.24261492     0.14840
N3454       N  0.80496711  0.79403906  0.29050067     0.73940
O3455       O  0.72400101  0.65142551  0.19479468    -0.39510
O3456       O  0.70099114  0.69222955  0.17636523    -0.39460
O3457       O  0.83153500  0.83202395  0.28375584    -0.40160
O3458       O  0.79774546  0.78356691  0.31729311    -0.40230
C3459       C  0.83535682  0.69921286  0.46855645    -0.12510
C3460       C  0.84039879  0.67118307  0.48709460     0.04500
C3461       C  0.85723492  0.64481614  0.47634929    -0.07800
C3462       C  0.86712906  0.64657519  0.44654212    -0.08540
C3463       C  0.85794292  0.67127143  0.42753425    -0.03090
C3464       C  0.84136360  0.69784260  0.43829736     0.03730
N3465       N  0.82689317  0.72016190  0.41945283     0.66230
H3466       H  0.82429155  0.72052730  0.47773994     0.15130
H3467       H  0.87878934  0.62566916  0.43757569     0.14840
N3468       N  0.86209433  0.61457464  0.99442468     0.73940
O3469       O  0.82006937  0.74951765  0.42987646    -0.39510
O3470       O  0.81403425  0.70626808  0.39412681    -0.39460
O3471       O  0.84844723  0.60788990  0.02072896    -0.40160
O3472       O  0.88013804  0.59396301  0.98407569    -0.40230
C3473       C  0.83835389  0.63144575  0.19729486    -0.12510
C3474       C  0.82658904  0.65799553  0.18246456     0.04500
C3475       C  0.83153108  0.69639342  0.19567434    -0.07800
C3476       C  0.84830115  0.70691146  0.22360922    -0.08540
C3477       C  0.85888140  0.67970064  0.23872720    -0.03090
C3478       C  0.85516141  0.64205285  0.22524914     0.03730
N3479       N  0.86765500  0.61415507  0.23972622     0.66230
H3480       H  0.83731690  0.60389362  0.18603747     0.15130
H3481       H  0.84958872  0.73464260  0.23479049     0.14840
N3482       N  0.82065544  0.72530278  0.18082122     0.73940
O3483       O  0.86711583  0.58276910  0.22606871    -0.39510
O3484       O  0.88288516  0.62257827  0.26501899    -0.39460
O3485       O  0.79777290  0.71346221  0.15859296    -0.40160
O3486       O  0.83164730  0.76216539  0.19104657    -0.40230
C3487       C  0.92006216  0.55728030  0.16387474    -0.12510
C3488       C  0.93849128  0.57612089  0.19087548     0.04500
C3489       C  0.95072380  0.62051743  0.19390715    -0.07800
C3490       C  0.94037636  0.64228746  0.17218369    -0.08540
C3491       C  0.91912829  0.62177331  0.14655646    -0.03090
C3492       C  0.91009566  0.57936518  0.14220306     0.03730
N3493       N  0.89316391  0.56021784  0.11452826     0.66230
H3494       H  0.91627777  0.52622630  0.15903907     0.15130
H3495       H  0.94839359  0.67540261  0.17567354     0.14840
N3496       N  0.97237624  0.64406433  0.21923049     0.73940
O3497       O  0.91689720  0.57457147  0.09189242    -0.39510
O3498       O  0.85395038  0.54550635  0.11111565    -0.39460
O3499       O  0.00827202  0.64785857  0.22469886    -0.40160
O3500       O  0.96096751  0.66916515  0.23151935    -0.40230
C3501       C  0.66768229  0.54428815  0.18900893    -0.12510
C3502       C  0.63685047  0.55784956  0.19327257     0.04500
C3503       C  0.63839294  0.58922872  0.17376064    -0.07800
C3504       C  0.66936785  0.60464411  0.15031743    -0.08540
C3505       C  0.70017383  0.59079931  0.14601947    -0.03090
C3506       C  0.69826332  0.55943522  0.16561360     0.03730
N3507       N  0.72439830  0.53952887  0.16046937     0.66230
H3508       H  0.66549061  0.51885052  0.20260236     0.15130
H3509       H  0.67072275  0.62943319  0.13627248     0.14840
N3510       N  0.60898533  0.60583361  0.17722857     0.73940
O3511       O  0.75522569  0.04827156  0.17670076    -0.39510
O3512       O  0.71867781  0.51572053  0.13837549    -0.39460
O3513       O  0.60430672  0.62033294  0.20177947    -0.40160
O3514       O  0.59367335  0.61313139  0.15488407    -0.40230
C3515       C  0.89399282  0.83419173  0.14526518    -0.12510
C3516       C  0.90979939  0.80534080  0.14168695     0.04500
C3517       C  0.93286948  0.80157889  0.16542580    -0.07800
C3518       C  0.94279771  0.82945561  0.18985742    -0.08540
C3519       C  0.93040159  0.86122438  0.19210362    -0.03090
C3520       C  0.90346254  0.86159266  0.16996649     0.03730
N3521       N  0.88672054  0.89080058  0.17083207     0.66230
H3522       H  0.87413556  0.83571598  0.12846616     0.15130
H3523       H  0.96025891  0.82617559  0.20744334     0.14840
N3524       N  0.94496459  0.76849944  0.16597061     0.73940
O3525       O  0.88234008  0.90527000  0.14687972    -0.39510
O3526       O  0.86810130  0.89466425  0.19386847    -0.39460
O3527       O  0.97168918  0.76825166  0.14715304    -0.40160
O3528       O  0.93515558  0.74449985  0.18818222    -0.40230
C3529       C  0.70960682  0.98771538  0.49863593    -0.12510
C3530       C  0.74120287  0.98183730  0.48329387     0.04500
C3531       C  0.78127514  0.99824480  0.49662648    -0.07800
C3532       C  0.78869676  0.51996444  0.02377640    -0.08540
C3533       C  0.75803409  0.52809917  0.03811787    -0.03090
C3534       C  0.71732224  0.50999981  0.02590958     0.03730
N3535       N  0.68293393  0.51267343  0.04117132     0.66230
H3536       H  0.67807681  0.97323066  0.48990827     0.15130
H3537       H  0.81966589  0.53222928  0.03315280     0.14840
N3538       N  0.81571546  0.99507821  0.48209909     0.73940
O3539       O  0.64970997  0.50366666  0.02774104    -0.39510
O3540       O  0.68339044  0.51920111  0.06852539    -0.39460
O3541       O  0.82302539  0.50385879  0.45519603    -0.40160
O3542       O  0.84254687  0.99038146  0.49662040    -0.40230
C3543       C  0.97993055  0.78493250  0.99887212    -0.12510
C3544       C  0.96475724  0.74709144  0.01547297     0.04500
C3545       C  0.98157899  0.71887115  0.00735780    -0.07800
C3546       C  0.51473889  0.73209037  0.48541320    -0.08540
C3547       C  0.53315222  0.77241601  0.47174369    -0.03090
C3548       C  0.51723667  0.80039735  0.98071321     0.03730
N3549       N  0.54239890  0.84597917  0.97682023     0.66230
H3550       H  0.96642932  0.80592169  0.00344314     0.15130
H3551       H  0.52913699  0.71203798  0.48102957     0.14840
N3552       N  0.96751361  0.67768628  0.52094948     0.73940
O3553       O  0.52537126  0.86915596  0.98237446    -0.39510
O3554       O  0.58223964  0.86348399  0.47786002    -0.39460
O3555       O  0.93019260  0.65621157  0.53111068    -0.40160
O3556       O  0.98979666  0.65906276  0.01799159    -0.40230
C3557       C  0.76285006  0.78590735  0.03005897    -0.12510
C3558       C  0.76743201  0.75020040  0.02342910     0.04500
C3559       C  0.75387674  0.73088815  0.49556843    -0.07800
C3560       C  0.74546411  0.75291101  0.47335465    -0.08540
C3561       C  0.74414712  0.79110828  0.47927733    -0.03090
C3562       C  0.74963583  0.80535488  0.00904941     0.03730
N3563       N  0.73755770  0.83606834  0.01964210     0.66230
H3564       H  0.76853498  0.79798440  0.05222851     0.15130
H3565       H  0.73639948  0.73825628  0.45195391     0.14840
N3566       N  0.74101210  0.68652674  0.49128566     0.73940
O3567       O  0.71417071  0.82735634  0.04264946    -0.39510
O3568       O  0.75845811  0.87441965  0.51138403    -0.39460
O3569       O  0.71861399  0.66062310  0.51125568    -0.40160
O3570       O  0.74133008  0.67231815  0.46573524    -0.40230
O3571       O  0.79213149  0.66528761  0.52484427    -0.80380
O3572       O  0.92556309  0.68145211  0.61738972    -0.80400
O3573       O  0.91476028  0.76396161  0.54210720    -0.80410
O3574       O  0.79669632  0.56541110  0.58158663    -0.80350
O3575       O  0.92173660  0.71022141  0.56035504    -0.80470
O3576       O  0.76335806  0.59344461  0.55738338    -0.80390
O3577       O  0.86468613  0.62110788  0.61565788    -0.80380
O3578       O  0.85589385  0.68225290  0.53607491    -0.80420
C3579       C  0.82847698  0.67158628  0.01745709     1.09310
C3580       C  0.90322040  0.64265126  0.62508711     1.09200
C3581       C  0.93351911  0.74097401  0.54103731     1.09330
C3582       C  0.77205381  0.56260461  0.56118546     1.09210
O3583       O  0.73257715  0.63456151  0.60273926    -0.80380
O3584       O  0.91490010  0.75210953  0.61255093    -0.80460
O3585       O  0.82684579  0.74495934  0.54162195    -0.80390
O3586       O  0.80691936  0.62249915  0.63547210    -0.80370
O3587       O  0.85896173  0.68813509  0.63899100    -0.80420
O3588       O  0.76475715  0.70736491  0.56491011    -0.80390
O3589       O  0.76659614  0.60289474  0.62103771    -0.80350
O3590       O  0.87258757  0.77271421  0.59568568    -0.80420
Co3591     Co  0.76767761  0.65292201  0.56524234     1.51530
Co3592     Co  0.88370544  0.69276391  0.59981331     1.51690
Co3593     Co  0.86409976  0.72762571  0.56464448     1.51570
Co3594     Co  0.81742189  0.62495367  0.59112192     1.51470
O3595       O  0.82499151  0.68397386  0.58908204    -1.42310
C3596       C  0.73430334  0.60987792  0.62179051     1.09240
C3597       C  0.89871576  0.77632655  0.61515235     1.09330
C3598       C  0.78743342  0.73447411  0.54518828     1.09270
C3599       C  0.82920494  0.65591966  0.65084267     1.09240
O3600       O  0.81639448  0.64925223  0.77884671    -0.80380
O3601       O  0.92153413  0.65656578  0.86318509    -0.80400
O3602       O  0.91219049  0.72868653  0.79997989    -0.80410
O3603       O  0.80501296  0.55934875  0.81493697    -0.80350
O3604       O  0.95702812  0.72623365  0.83066222    -0.80470
O3605       O  0.75894660  0.58164011  0.80391314    -0.80390
O3606       O  0.87770095  0.59327014  0.84909634    -0.80380
O3607       O  0.87572287  0.70910043  0.78744827    -0.80420
C3608       C  0.85118364  0.67923784  0.76995587     1.09310
C3609       C  0.90578769  0.61691754  0.86671623     1.09200
C3610       C  0.95083450  0.73576105  0.80524414     1.09330
C3611       C  0.77740631  0.55894669  0.79767362     1.09210
O3612       O  0.75951084  0.63525204  0.85678676    -0.80380
O3613       O  0.90170898  0.73051971  0.86796518    -0.80460
O3614       O  0.81524093  0.71883917  0.80480751    -0.80390
O3615       O  0.83620928  0.62199668  0.89059106    -0.80370
O3616       O  0.88371719  0.69113641  0.87870884    -0.80420
O3617       O  0.75244376  0.65999682  0.80019350    -0.80390
O3618       O  0.76081175  0.57533087  0.86407987    -0.80350
O3619       O  0.88489064  0.77001458  0.84033032    -0.80420
Co3620     Co  0.78989373  0.64368246  0.81726665     1.51530
Co3621     Co  0.89901562  0.68429701  0.83663354     1.51690
Co3622     Co  0.85803800  0.70879094  0.83043193     1.51570
Co3623     Co  0.82081398  0.58974830  0.85370902     1.51470
O3624       O  0.83801982  0.64446653  0.83250037    -1.42310
C3625       C  0.74731954  0.60120763  0.87158268     1.09240
C3626       C  0.90130568  0.76663095  0.86388548     1.09330
C3627       C  0.77724131  0.69932130  0.79418705     1.09270
C3628       C  0.85888520  0.66133860  0.89698852     1.09240
O3629       O  0.74572272  0.79798341  0.68040235    -0.80380
O3630       O  0.65471835  0.82847027  0.61337885    -0.80400
O3631       O  0.63763272  0.73703424  0.65507224    -0.80410
O3632       O  0.74209336  0.90706539  0.63042681    -0.80350
O3633       O  0.59895154  0.76028664  0.63511134    -0.80470
O3634       O  0.77388600  0.86967767  0.64278871    -0.80390
O3635       O  0.69824340  0.89577504  0.61935858    -0.80380
O3636       O  0.68536560  0.76170842  0.70628835    -0.80420
C3637       C  0.72378244  0.77043349  0.70027190     1.09310
C3638       C  0.67501532  0.86490785  0.60264169     1.09200
C3639       C  0.61316335  0.73393390  0.63460445     1.09330
C3640       C  0.77027840  0.89468080  0.62521531     1.09210
O3641       O  0.75220943  0.91492074  0.69422199    -0.80380
O3642       O  0.59328595  0.79982500  0.69180379    -0.80460
O3643       O  0.65935653  0.82503624  0.71741555    -0.80390
O3644       O  0.64642876  0.89608184  0.64491978    -0.80370
O3645       O  0.58829080  0.83440275  0.63811577    -0.80420
O3646       O  0.72532996  0.84143361  0.72188823    -0.80390
O3647       O  0.71619699  0.94393768  0.67464401    -0.80350
O3648       O  0.59768214  0.74417756  0.70925695    -0.80420
Co3649     Co  0.74543365  0.85401229  0.68203797     1.51530
Co3650     Co  0.62937682  0.81892963  0.65214040     1.51690
Co3651     Co  0.64806813  0.78126469  0.68668379     1.51570
Co3652     Co  0.69485296  0.88590940  0.66329369     1.51470
O3653       O  0.68627106  0.82576471  0.66171158    -1.42310
C3654       C  0.74154334  0.94524185  0.69376185     1.09240
C3655       C  0.57932709  0.76751965  0.70982082     1.09330
C3656       C  0.69313816  0.84338097  0.73088449     1.09270
C3657       C  0.60805029  0.87494624  0.63523295     1.09240
O3658       O  0.73437770  0.84796499  0.95911406    -0.80380
O3659       O  0.64030004  0.82658190  0.85880885    -0.80400
O3660       O  0.63847463  0.74909444  0.89687976    -0.80410
O3661       O  0.73984290  0.93255284  0.88933862    -0.80350
O3662       O  0.58552555  0.76114295  0.88650859    -0.80470
O3663       O  0.75585807  0.88494664  0.90226429    -0.80390
O3664       O  0.67289107  0.89577637  0.86017005    -0.80380
O3665       O  0.70714068  0.78830789  0.93505514    -0.80420
C3666       C  0.72961338  0.81058557  0.95593213     1.09310
C3667       C  0.66247396  0.86172640  0.84684130     1.09200
C3668       C  0.60593129  0.74005875  0.88194611     1.09330
C3669       C  0.76174464  0.91399009  0.88429790     1.09210
O3670       O  0.75098363  0.93110695  0.95310237    -0.80380
O3671       O  0.58323581  0.81909523  0.93469618    -0.80460
O3672       O  0.65458475  0.80523577  0.97580028    -0.80390
O3673       O  0.61523844  0.89067706  0.90363216    -0.80370
O3674       O  0.57262526  0.83433526  0.87806806    -0.80420
O3675       O  0.66888033  0.87013823  0.96437512    -0.80390
O3676       O  0.69519075  0.93876073  0.94266106    -0.80350
O3677       O  0.58571396  0.76096558  0.94335094    -0.80420
Co3678     Co  0.71278063  0.87910818  0.93398208     1.51530
Co3679     Co  0.61387868  0.82480050  0.89647611     1.51690
Co3680     Co  0.64820257  0.78017532  0.93559916     1.51570
Co3681     Co  0.67836773  0.90522329  0.90203062     1.51470
O3682       O  0.66759002  0.83772689  0.91246856    -1.42310
C3683       C  0.72965785  0.95090903  0.95755477     1.09240
C3684       C  0.56933342  0.78500105  0.94916653     1.09330
C3685       C  0.65758161  0.84101595  0.48287706     1.09270
C3686       C  0.58930435  0.87453858  0.88195253     1.09240
O3687       O  0.94325211  0.90176238  0.97903865    -0.80380
O3688       O  0.52636042  0.52271399  0.55753495    -0.80400
O3689       O  0.54581681  0.94047337  0.01771393    -0.80410
O3690       O  0.93521688  0.00880487  0.53233468    -0.80350
O3691       O  0.57737625  0.99933870  0.54288272    -0.80470
O3692       O  0.90964461  0.94430213  0.51389052    -0.80390
O3693       O  0.97281126  0.53312732  0.54644515    -0.80380
O3694       O  0.00711008  0.92197385  0.95953133    -0.80420
C3695       C  0.96704744  0.89534262  0.96037927     1.09310
C3696       C  0.49423662  0.52614244  0.56515703     1.09200
C3697       C  0.56384813  0.95918999  0.54133350     1.09330
C3698       C  0.90650147  0.96874147  0.53295763     1.09210
O3699       O  0.94580546  0.51541700  0.96846041    -0.80380
O3700       O  0.60149426  0.54715609  0.98373223    -0.80460
O3701       O  0.54034677  0.01178213  0.95261982    -0.80390
O3702       O  0.53765478  0.59121335  0.52796715    -0.80370
O3703       O  0.59637192  0.58658207  0.53584065    -0.80420
O3704       O  0.97579503  0.96921498  0.94038116    -0.80390
O3705       O  0.97087995  0.57581050  0.99322106    -0.80350
O3706       O  0.59670187  0.48641171  0.96611108    -0.80420
Co3707     Co  0.94728142  0.95956974  0.97848096     1.51530
Co3708     Co  0.55673446  0.53307839  0.51979021     1.51690
Co3709     Co  0.54271352  0.97614701  0.98427866     1.51570
Co3710     Co  0.99107846  0.53728995  0.50459891     1.51470
O3711       O  0.50086559  0.48549756  0.00554332    -1.42310
C3712       C  0.95270415  0.55445003  0.97071311     1.09240
C3713       C  0.61662864  0.52734029  0.96658447     1.09330
C3714       C  0.01349569  0.99424641  0.93362716     1.09270
C3715       C  0.57513662  0.60671532  0.53944087     1.09240
O3716       O  0.92830026  0.90446951  0.73347667    -0.80380
O3717       O  0.50395555  0.47701089  0.79748942    -0.80400
O3718       O  0.54155309  0.95141545  0.76431665    -0.80410
O3719       O  0.91916049  0.01664376  0.78227556    -0.80350
O3720       O  0.58678893  0.01125265  0.78496397    -0.80470
O3721       O  0.89602582  0.94853724  0.77091742    -0.80390
O3722       O  0.98172613  0.52103160  0.80919303    -0.80380
O3723       O  0.99065617  0.92384223  0.71089717    -0.80420
C3724       C  0.95094509  0.89710264  0.71428844     1.09310
C3725       C  0.49331434  0.49460973  0.81652939     1.09200
C3726       C  0.57053472  0.97062712  0.78374422     1.09330
C3727       C  0.89446605  0.97666625  0.78796285     1.09210
O3728       O  0.91680491  0.51074054  0.72067797    -0.80380
O3729       O  0.58256145  0.54894847  0.73190051    -0.80460
O3730       O  0.51864271  0.01074341  0.69760111    -0.80390
O3731       O  0.50246379  0.59462458  0.78575698    -0.80370
O3732       O  0.55289938  0.57365270  0.78915759    -0.80420
O3733       O  0.95052028  0.96675190  0.69091638    -0.80390
O3734       O  0.97851102  0.56523018  0.72941234    -0.80350
O3735       O  0.57975526  0.49131283  0.71122715    -0.80420
Co3736     Co  0.92534223  0.95888136  0.73066853     1.51530
Co3737     Co  0.54015971  0.51422495  0.76641795     1.51690
Co3738     Co  0.52695735  0.98165522  0.73055198     1.51570
Co3739     Co  0.98183090  0.54098255  0.76824799     1.51470
O3740       O  0.48163966  0.49190211  0.75007532    -1.42310
C3741       C  0.94503450  0.54934132  0.71473496     1.09240
C3742       C  0.59899611  0.53197448  0.71348117     1.09330
C3743       C  0.98732307  0.99262363  0.68157194     1.09270
C3744       C  0.53774051  0.60046325  0.79564053     1.09240
C3745       C  0.51205087  0.95931397  0.88835301    -0.12510
C3746       C  0.52533340  0.99804288  0.90340471     0.04500
C3747       C  0.03758345  0.53627257  0.88856829    -0.07800
C3748       C  0.02956601  0.53333032  0.85901776    -0.08540
C3749       C  0.50607917  0.49354450  0.84570237    -0.03090
C3750       C  0.50078060  0.95595458  0.85925964     0.03730
N3751       N  0.48122418  0.91438147  0.84537410     0.66230
H3752       H  0.50497908  0.93062296  0.90040523     0.15130
H3753       H  0.03962856  0.56215406  0.84671429     0.14840
N3754       N  0.05581308  0.57731803  0.90304485     0.73940
O3755       O  0.48566475  0.88429370  0.85598223    -0.39510
O3756       O  0.45560065  0.90580087  0.82491035    -0.39460
O3757       O  0.08163124  0.61061558  0.88926761    -0.40160
O3758       O  0.04440310  0.58117267  0.92894101    -0.40230
C3759       C  0.47208207  0.97638874  0.60309973    -0.12510
C3760       C  0.48052591  0.51734776  0.59491712     0.04500
C3761       C  0.99353133  0.55101846  0.61532714    -0.07800
C3762       C  0.99863424  0.54256290  0.64396171    -0.08540
C3763       C  0.49266758  0.00243943  0.65140942    -0.03090
C3764       C  0.48232503  0.96971289  0.63067612     0.03730
N3765       N  0.48747900  0.93267509  0.63609101     0.66230
H3766       H  0.46461993  0.95189774  0.58641858     0.15130
H3767       H  0.00657627  0.56690367  0.66074489     0.14840
N3768       N  0.00252229  0.59350934  0.60741916     0.73940
O3769       O  0.47373652  0.90198706  0.61811089    -0.39510
O3770       O  0.51416627  0.93495207  0.65426823    -0.39460
O3771       O  0.99526917  0.60135338  0.58203919    -0.40160
O3772       O  0.51419582  0.62265574  0.62660100    -0.40230
C3773       C  0.56246688  0.87955881  0.83301773    -0.12510
C3774       C  0.58372977  0.90077221  0.85835110     0.04500
C3775       C  0.60302426  0.94575513  0.85813968    -0.07800
C3776       C  0.59959107  0.96780321  0.83350631    -0.08540
C3777       C  0.57759836  0.94622390  0.80818489    -0.03090
C3778       C  0.55924736  0.90122075  0.80851560     0.03730
N3779       N  0.54021400  0.87627307  0.78334371     0.66230
H3780       H  0.54914603  0.84524942  0.83139152     0.15130
H3781       H  0.61329289  0.00200826  0.83448382     0.14840
N3782       N  0.62681296  0.96948925  0.88252747     0.73940
O3783       O  0.55421987  0.85167799  0.77402519    -0.39510
O3784       O  0.50307282  0.86825223  0.77723687    -0.39460
O3785       O  0.66681931  0.98921936  0.88014313    -0.40160
O3786       O  0.60883348  0.46342658  0.90765638    -0.40230
C3787       C  0.55080667  0.66796092  0.86474599    -0.12510
C3788       C  0.59065786  0.70365326  0.86007085     0.04500
C3789       C  0.61399111  0.70416021  0.83403441    -0.07800
C3790       C  0.59762309  0.66958662  0.81399586    -0.08540
C3791       C  0.55711571  0.63467157  0.81847083    -0.03090
C3792       C  0.53346191  0.63417256  0.84441936     0.03730
N3793       N  0.49258813  0.59860812  0.85152246     0.66230
H3794       H  0.53221665  0.66669365  0.88402375     0.15130
H3795       H  0.61551181  0.67151888  0.79381984     0.14840
N3796       N  0.65053033  0.74227312  0.82483384     0.73940
O3797       O  0.48554006  0.58158751  0.87657455    -0.39510
O3798       O  0.96203149  0.58754225  0.83465981    -0.39460
O3799       O  0.68573318  0.74234031  0.82184861    -0.40160
O3800       O  0.64451768  0.76863222  0.81031866    -0.40230
C3801       C  0.82270968  0.96149852  0.81031677    -0.12510
C3802       C  0.86138697  0.96158093  0.81355290     0.04500
C3803       C  0.86543398  0.94383527  0.84033657    -0.07800
C3804       C  0.83055230  0.92348119  0.86058874    -0.08540
C3805       C  0.79402970  0.92808465  0.85869063    -0.03090
C3806       C  0.79110074  0.94909692  0.83315082     0.03730
N3807       N  0.75687516  0.95867228  0.82964494     0.66230
H3808       H  0.81759171  0.97241616  0.79017325     0.15130
H3809       H  0.83473847  0.90991904  0.88053587     0.14840
N3810       N  0.90597457  0.95520893  0.85133870     0.73940
O3811       O  0.75219540  0.98378119  0.84744693    -0.39510
O3812       O  0.74016426  0.95279969  0.80497426    -0.39460
O3813       O  0.92821318  0.49384809  0.85839294    -0.40160
O3814       O  0.91023399  0.92733779  0.86543628    -0.40230
C3815       C  0.71832767  0.85502206  0.77952931    -0.12510
C3816       C  0.69402381  0.86184405  0.75899622     0.04500
C3817       C  0.66615201  0.87805108  0.76748779    -0.07800
C3818       C  0.65686687  0.87799312  0.79726904    -0.08540
C3819       C  0.67578837  0.86369125  0.81732153    -0.03090
C3820       C  0.70891824  0.85473310  0.80909381     0.03730
N3821       N  0.73127811  0.84272070  0.82961247     0.66230
H3822       H  0.74123418  0.84467115  0.77259394     0.15130
H3823       H  0.63440702  0.88845677  0.80496794     0.14840
N3824       N  0.64824236  0.89548240  0.74714033     0.73940
O3825       O  0.76706034  0.84605469  0.82224094    -0.39510
O3826       O  0.71441278  0.82543825  0.85396434    -0.39460
O3827       O  0.65251938  0.89285826  0.71970430    -0.40160
O3828       O  0.63233657  0.91844781  0.75667182    -0.40230
C3829       C  0.68866107  0.89094767  0.52321999    -0.12510
C3830       C  0.65532554  0.85219629  0.51330089     0.04500
C3831       C  0.62434830  0.82440643  0.53332884    -0.07800
C3832       C  0.62812074  0.83603857  0.56245618    -0.08540
C3833       C  0.66585947  0.86954891  0.57266344    -0.03090
C3834       C  0.69500815  0.89963164  0.55307629     0.03730
N3835       N  0.73348659  0.93476912  0.56282213     0.66230
H3836       H  0.71342778  0.91108490  0.50809526     0.15130
H3837       H  0.60428040  0.81455353  0.57784011     0.14840
N3838       N  0.59166431  0.78273466  0.52575824     0.73940
O3839       O  0.76866405  0.94190957  0.55102967    -0.39510
O3840       O  0.73237598  0.95988418  0.58231800    -0.39460
O3841       O  0.60177772  0.75577640  0.51504269    -0.40160
O3842       O  0.55584860  0.76894564  0.53869025    -0.40230
C3843       C  0.59163907  0.95953377  0.59233810    -0.12510
C3844       C  0.57084218  0.93628673  0.56723463     0.04500
C3845       C  0.55625241  0.89189091  0.56857162    -0.07800
C3846       C  0.56626052  0.87302641  0.59197132    -0.08540
C3847       C  0.59040269  0.89663511  0.61556733    -0.03090
C3848       C  0.60000685  0.94030212  0.61684527     0.03730
N3849       N  0.61254407  0.96435759  0.64362781     0.66230
H3850       H  0.60074587  0.49318342  0.59321745     0.15130
H3851       H  0.55532480  0.83896524  0.59125932     0.14840
N3852       N  0.53133307  0.86448138  0.54624369     0.73940
O3853       O  0.60818500  0.49738592  0.64614308    -0.39510
O3854       O  0.61815845  0.94845495  0.66652460    -0.39460
O3855       O  0.54040565  0.83612423  0.53723326    -0.40160
O3856       O  0.49441028  0.85951279  0.54310725    -0.40230
C3857       C  0.62709644  0.68027121  0.60561789    -0.12510
C3858       C  0.60356899  0.70263040  0.60919494     0.04500
C3859       C  0.57319391  0.69575388  0.58733082    -0.07680
C3860       C  0.56976572  0.66946277  0.56269565    -0.08540
C3861       C  0.59028686  0.64427915  0.56068179    -0.03090
C3862       C  0.61966656  0.65051277  0.58264353     0.03730
N3863       N  0.64065694  0.62505717  0.58292326     0.66230
H3864       H  0.65057220  0.68468106  0.62151099     0.15130
H3865       H  0.54703717  0.66505951  0.54644891     0.14840
N3866       N  0.54070616  0.70856122  0.59159230     0.73940
O3867       O  0.67352505  0.63559178  0.56680178    -0.39510
O3868       O  0.62142905  0.58789389  0.59370651    -0.39460
O3869       O  0.54999956  0.74711595  0.59518883    -0.40160
O3870       O  0.50257928  0.68213664  0.58673151    -0.40230
C3871       C  0.87134146  0.97129431  0.58298073    -0.12510
C3872       C  0.87081695  0.94939183  0.55664641     0.04500
C3873       C  0.83746540  0.90646887  0.55463146    -0.07800
C3874       C  0.80412813  0.88938004  0.57636016    -0.08540
C3875       C  0.80278629  0.91348562  0.60058239    -0.03090
C3876       C  0.83784233  0.95343642  0.60477905     0.03730
N3877       N  0.84183583  0.97191240  0.63344186     0.66230
H3878       H  0.89907469  0.00090559  0.58725065     0.15130
H3879       H  0.77953948  0.85677022  0.57492672     0.14840
N3880       N  0.83953456  0.87813399  0.53268908     0.73940
O3881       O  0.86000418  0.96141090  0.65219319    -0.39510
O3882       O  0.81388547  0.98162227  0.64283350    -0.39460
O3883       O  0.85275968  0.85241040  0.53950613    -0.40160
O3884       O  0.83511815  0.88336200  0.50593283    -0.40230
C3885       C  0.90732983  0.54533793  0.92891718    -0.12510
C3886       C  0.94179858  0.57349714  0.94529546     0.04500
C3887       C  0.96588177  0.61624737  0.93473281    -0.07800
C3888       C  0.95148776  0.62908151  0.91007225    -0.08540
C3889       C  0.91661381  0.60046701  0.89374718    -0.03090
C3890       C  0.89288866  0.55836386  0.90469864     0.03730
N3891       N  0.85253352  0.52874780  0.89350835     0.66230
H3892       H  0.89043185  0.51226940  0.93579209     0.15130
H3893       H  0.96898278  0.66182984  0.90257898     0.14840
N3894       N  0.00687358  0.64603709  0.94575079     0.73940
O3895       O  0.83943566  0.98967258  0.89794172    -0.39510
O3896       O  0.82534941  0.54074368  0.88891917    -0.39460
O3897       O  0.52662535  0.63464767  0.96271732    -0.40160
O3898       O  0.02703716  0.68253721  0.93423401    -0.40230
C3899       C  0.72630734  0.58727864  0.92519629    -0.12510
C3900       C  0.71455546  0.58871377  0.89625627     0.04500
C3901       C  0.67119906  0.57409256  0.89114664    -0.07800
C3902       C  0.64080424  0.55586290  0.91476766    -0.08540
C3903       C  0.65193447  0.55210130  0.94362202    -0.03090
C3904       C  0.69602964  0.57093129  0.94904735     0.03730
N3905       N  0.71090775  0.57532288  0.97841800     0.66230
H3906       H  0.75973298  0.59968650  0.92924390     0.15130
H3907       H  0.60776705  0.54235515  0.91023759     0.14840
N3908       N  0.65725217  0.57508017  0.86195227     0.73940
O3909       O  0.74897984  0.58457467  0.98258148    -0.39510
O3910       O  0.68879062  0.57784038  0.99978909    -0.39460
O3911       O  0.67773547  0.57304857  0.83934147    -0.40160
O3912       O  0.62336214  0.57669228  0.85849683    -0.40230
C3913       C  0.97159864  0.84184487  0.92434875    -0.12510
C3914       C  0.94797665  0.86102291  0.93644349     0.04500
C3915       C  0.90829358  0.84954318  0.92319451    -0.07800
C3916       C  0.89484766  0.82107117  0.89867214    -0.08540
C3917       C  0.91817964  0.80101266  0.88762247    -0.03090
C3918       C  0.95644123  0.81113473  0.90159136     0.03730
N3919       N  0.98151742  0.79159499  0.89197661     0.66230
H3920       H  0.00279488  0.85109817  0.93211155     0.15130
H3921       H  0.86509811  0.81357237  0.88873911     0.14840
N3922       N  0.88117956  0.86665265  0.93374168     0.73940
O3923       O  0.49127705  0.79182501  0.86506819    -0.39510
O3924       O  0.99475994  0.77491825  0.91032428    -0.39460
O3925       O  0.89501672  0.90650338  0.93467936    -0.40160
O3926       O  0.84168103  0.84232919  0.93677197    -0.40230
C3927       C  0.79717437  0.01823062  0.75957805    -0.12510
C3928       C  0.76811325  0.53215846  0.76969124     0.04500
C3929       C  0.73185966  0.52005565  0.75262309    -0.07800
C3930       C  0.72433699  0.49228292  0.72817533    -0.08540
C3931       C  0.75301843  0.97750190  0.71869145    -0.03090
C3932       C  0.78948154  0.99047008  0.73525144     0.03730
N3933       N  0.81998793  0.97705515  0.72679950     0.66230
H3934       H  0.82711834  0.03020389  0.77030960     0.15130
H3935       H  0.69536176  0.48156304  0.71653847     0.14840
N3936       N  0.70275220  0.53616907  0.75922209     0.73940
O3937       O  0.83976086  0.98951906  0.70246928    -0.39510
O3938       O  0.81906043  0.94522840  0.73929052    -0.39460
O3939       O  0.71479567  0.57545624  0.75583069    -0.40160
O3940       O  0.66357735  0.51055566  0.76193369    -0.40230
C3941       C  0.98766996  0.77155986  0.75621489    -0.12510
C3942       C  0.98479574  0.74694147  0.78099001     0.04500
C3943       C  0.51356664  0.73022008  0.78163121    -0.07800
C3944       C  0.54265827  0.73655595  0.75824722    -0.08540
C3945       C  0.54589024  0.76102625  0.73349701    -0.03090
C3946       C  0.51927484  0.78074075  0.73339923     0.03730
N3947       N  0.52597520  0.81255549  0.71185630     0.66230
H3948       H  0.96654893  0.78534954  0.75511450     0.15130
H3949       H  0.56337711  0.72233024  0.75981416     0.14840
N3950       N  0.51274852  0.70498974  0.80574587     0.73940
O3951       O  0.02755625  0.80501307  0.68494598    -0.39510
O3952       O  0.53298931  0.84944112  0.71966345    -0.39460
O3953       O  0.48499153  0.66620498  0.80706288    -0.40160
O3954       O  0.53254681  0.72352835  0.82837921    -0.40230
C3955       C  0.74196413  0.69395934  0.74750197    -0.12510
C3956       C  0.76490859  0.72014679  0.77075930     0.04500
C3957       C  0.77985788  0.76476609  0.76820171    -0.07800
C3958       C  0.76864682  0.78078467  0.74359619    -0.08540
C3959       C  0.74398102  0.75382463  0.72098510    -0.03090
C3960       C  0.73272400  0.71017627  0.72240372     0.03730
N3961       N  0.71625841  0.68240730  0.69763698     0.66230
H3962       H  0.73268709  0.66023468  0.74818246     0.15130
H3963       H  0.77804110  0.81449823  0.74261764     0.14840
N3964       N  0.80497525  0.79405427  0.79050569     0.73940
O3965       O  0.72393514  0.65140255  0.69483013    -0.39510
O3966       O  0.70093519  0.69221296  0.67639733    -0.39460
O3967       O  0.83154531  0.83203583  0.78375456    -0.40160
O3968       O  0.79775928  0.78359124  0.81729982    -0.40230
C3969       C  0.83535951  0.69921941  0.96855515    -0.12510
C3970       C  0.84039078  0.67118101  0.98709141     0.04500
C3971       C  0.85722514  0.64481297  0.97634582    -0.07800
C3972       C  0.86713204  0.64658215  0.94654062    -0.08540
C3973       C  0.85795385  0.67128472  0.92753335    -0.03090
C3974       C  0.84137457  0.69785599  0.93829646     0.03730
N3975       N  0.82691042  0.72018058  0.91945185     0.66230
H3976       H  0.82429410  0.72053357  0.97773908     0.15130
H3977       H  0.87879149  0.62567555  0.93757419     0.14840
N3978       N  0.86212110  0.61459058  0.49443098     0.73940
O3979       O  0.82009269  0.74954013  0.92987554    -0.39510
O3980       O  0.81404861  0.70628696  0.89412631    -0.39460
O3981       O  0.84848027  0.60790871  0.52073678    -0.40160
O3982       O  0.88016824  0.59398254  0.48408142    -0.40230
C3983       C  0.83834628  0.63143406  0.69730368    -0.12510
C3984       C  0.82656193  0.65796387  0.68246732     0.04500
C3985       C  0.83147360  0.69635301  0.69567254    -0.07800
C3986       C  0.84823333  0.70688332  0.72360981    -0.08540
C3987       C  0.85884557  0.67969838  0.73873074    -0.03090
C3988       C  0.85515021  0.64205641  0.72525845     0.03730
N3989       N  0.86766547  0.61417967  0.73974145     0.66230
H3990       H  0.83732917  0.60388795  0.68605007     0.15130
H3991       H  0.84949902  0.73460777  0.73478713     0.14840
N3992       N  0.82058528  0.72524543  0.68080971     0.73940
O3993       O  0.86713983  0.58279498  0.72609079    -0.39510
O3994       O  0.88289879  0.62261963  0.76503301    -0.39460
O3995       O  0.79769981  0.71338550  0.65858312    -0.40160
O3996       O  0.83157601  0.76211515  0.69102117    -0.40230
C3997       C  0.92003190  0.55724572  0.66388605    -0.12510
C3998       C  0.93848119  0.57610095  0.69087931     0.04500
C3999       C  0.95072330  0.62050006  0.69390258    -0.07800
C4000       C  0.94037358  0.64226365  0.67217710    -0.08540
C4001       C  0.91911347  0.62173952  0.64655623    -0.03090
C4002       C  0.91006581  0.57932585  0.64221110     0.03730
N4003       N  0.89312134  0.56016797  0.61454088     0.66230
H4004       H  0.91622538  0.52618088  0.65905920     0.15130
H4005       H  0.94839793  0.67538216  0.67566058     0.14840
N4006       N  0.97238209  0.64405480  0.71922171     0.73940
O4007       O  0.91684830  0.57450622  0.59190056    -0.39510
O4008       O  0.85390643  0.54545805  0.61113406    -0.39460
O4009       O  0.00828083  0.64785379  0.72468642    -0.40160
O4010       O  0.96097380  0.66915672  0.73150934    -0.40230
C4011       C  0.66768009  0.54429578  0.68901372    -0.12510
C4012       C  0.63684493  0.55785345  0.69327282     0.04500
C4013       C  0.63838354  0.58922561  0.67375551    -0.07800
C4014       C  0.66936352  0.60464326  0.65031500    -0.08540
C4015       C  0.70017174  0.59080049  0.64602103    -0.03090
C4016       C  0.69826157  0.55944004  0.66561858     0.03730
N4017       N  0.72439558  0.53953212  0.66047717     0.66230
H4018       H  0.66548972  0.51886143  0.70261003     0.15130
H4019       H  0.67071787  0.62942977  0.63626766     0.14840
N4020       N  0.60896691  0.60582069  0.67721486     0.73940
O4021       O  0.75520015  0.04823267  0.67667083    -0.39510
O4022       O  0.71867251  0.51571829  0.63838609    -0.39460
O4023       O  0.60427196  0.62031438  0.70176373    -0.40160
O4024       O  0.59365925  0.61311287  0.65486579    -0.40230
C4025       C  0.89403118  0.83417835  0.64527291    -0.12510
C4026       C  0.90979962  0.80529415  0.64171891     0.04500
C4027       C  0.93281920  0.80149888  0.66548079    -0.07800
C4028       C  0.94274985  0.82938945  0.68990618    -0.08540
C4029       C  0.93040052  0.86119471  0.69212383    -0.03090
C4030       C  0.90349733  0.86158443  0.66996865     0.03730
N4031       N  0.88678615  0.89081704  0.67081247     0.66230
H4032       H  0.87420745  0.83572660  0.62845791     0.15130
H4033       H  0.96017128  0.82608831  0.70751122     0.14840
N4034       N  0.94484856  0.76837121  0.66606192     0.73940
O4035       O  0.88247412  0.90531990  0.64685258    -0.39510
O4036       O  0.86812937  0.89467653  0.69383037    -0.39460
O4037       O  0.97155055  0.76804958  0.64725683    -0.40160
O4038       O  0.93505469  0.74444092  0.68830983    -0.40230
C4039       C  0.70960867  0.98770383  0.99865862    -0.12510
C4040       C  0.74120800  0.98183960  0.98330856     0.04500
C4041       C  0.78128586  0.99825801  0.99663397    -0.07800
C4042       C  0.78870450  0.51997831  0.52376542    -0.08540
C4043       C  0.75803840  0.52810857  0.53810580    -0.03090
C4044       C  0.71732960  0.51001302  0.52589366     0.03730
N4045       N  0.68293930  0.51268738  0.54115145     0.66230
H4046       H  0.67807504  0.97320985  0.98993640     0.15130
H4047       H  0.81967165  0.53224163  0.53314453     0.14840
N4048       N  0.81573009  0.99511209  0.98209460     0.73940
O4049       O  0.64971917  0.50368307  0.52771708    -0.39510
O4050       O  0.68338930  0.51921193  0.56850571    -0.39460
O4051       O  0.82301561  0.50386085  0.95520355    -0.40160
O4052       O  0.84257989  0.99043243  0.99660591    -0.40230
C4053       C  0.97994082  0.78492678  0.49889316    -0.12510
C4054       C  0.96478368  0.74709087  0.51549513     0.04500
C4055       C  0.98160634  0.71887479  0.50737020    -0.07800
C4056       C  0.51472557  0.73208240  0.98540840    -0.08540
C4057       C  0.53315635  0.77241604  0.97175156    -0.03090
C4058       C  0.51721618  0.80038987  0.48069617     0.03730
N4059       N  0.54232084  0.84596990  0.47674654     0.66230
H4060       H  0.96641133  0.80589277  0.50345408     0.15130
H4061       H  0.52911984  0.71202658  0.98102577     0.14840
N4062       N  0.96748026  0.67768687  0.02094428     0.73940
O4063       O  0.52527041  0.86911348  0.48235174    -0.39510
O4064       O  0.58230656  0.86343934  0.97800995    -0.39460
O4065       O  0.93015300  0.65621241  0.03109432    -0.40160
O4066       O  0.98982238  0.65905665  0.51797416    -0.40230
C4067       C  0.76287729  0.78592394  0.53006408    -0.12510
C4068       C  0.76745591  0.75021367  0.52343768     0.04500
C4069       C  0.75386430  0.73088302  0.99555661    -0.07800
C4070       C  0.74545676  0.75291101  0.97334417    -0.08540
C4071       C  0.74413716  0.79110611  0.97927069    -0.03090
C4072       C  0.74965570  0.80536497  0.50905391     0.03730
N4073       N  0.73757540  0.83607698  0.51964496     0.66230
H4074       H  0.76856802  0.79800764  0.55223197     0.15130
H4075       H  0.73640030  0.73826311  0.95194076     0.14840
N4076       N  0.74100705  0.68652400  0.99126838     0.73940
O4077       O  0.71418774  0.82736536  0.54265188    -0.39510
O4078       O  0.75844473  0.87441235  0.01138457    -0.39460
O4079       O  0.71860627  0.66061313  0.01123414    -0.40160
O4080       O  0.74133497  0.67232356  0.96571665    -0.40230
loop_ 
_geom_bond_atom_site_label_1 
_geom_bond_atom_site_label_2 
_geom_bond_distance 
_geom_bond_site_symmetry_2 
_ccdc_geom_bond_type 
O1          Co21   1.970       .  S
O1          C519   1.245       .  A
O2          Co22   1.931       .  S
O2           C10   1.270       .  A
O3          Co23   1.920       .  S
O3           C11   1.281       .  A
O4          Co24   1.930       .  S
O4           C12   1.276       .  A
O5          Co22   2.125       .  S
O5           C11   1.309       .  A
O6          Co21   2.073       .  S
O6           C12   1.291       .  A
O7          Co24   2.122       .  S
O7           C10   1.306       .  A
O8          Co23   1.973       .  S
O8          C519   1.235       .  A
C9          O511   1.245       .  A
C9          O518   1.235       .  A
C9          C400   1.433       .  S
C10         C431   1.518       .  S
C11         C484   1.527       .  S
C12         C473   1.508       .  S
O13         Co21   2.004       .  S
O13          C26   1.269       .  A
O14         Co22   1.951       .  S
O14          C27   1.249       .  A
O15         Co23   2.043       .  S
O15          C28   1.281       .  A
O16         Co24   2.036       .  S
O16          C29   1.286       .  A
O17         Co22   1.935       .  S
O17          C29   1.247       .  A
O18         Co21   1.990       .  S
O18          C28   1.275       .  A
O19         Co24   2.067       .  S
O19          C26   1.293       .  A
O20         Co23   2.039       .  S
O20          C27   1.274       .  A
Co21         O25   2.141       .  S
Co22         O25   2.051       .  S
Co23         O25   1.866       .  S
Co24         O25   1.989       .  S
C26         C445   1.518       .  S
C27         C456   1.513       .  S
C28         C498   1.504       .  S
C29         C414   1.443       .  S
O30         Co50   1.925       .  S
O30          C38   1.251       .  A
O31         Co51   1.990       .  S
O31          C39   1.256       .  A
O32         Co52   2.170       .  S
O32          C40   1.315       .  A
O33         Co53   2.009       .  S
O33          C41   1.281       .  A
O34         Co51   1.908       .  S
O34          C40   1.268       .  A
O35         Co50   2.037       .  S
O35          C41   1.287       .  A
O36         Co53   1.984       .  S
O36          C39   1.264       .  A
O37         Co52   2.033       .  S
O37          C38   1.293       .  A
C38         C417   1.437       .  S
C39         C319   1.512       .  S
C40         C372   1.520       .  S
C41         C358   1.527       .  S
O42         Co50   2.018       .  S
O42          C55   1.271       .  A
O43         Co51   2.129       .  S
O43          C56   1.309       .  A
O44         Co52   2.124       .  S
O44          C57   1.307       .  A
O45         Co53   1.961       .  S
O45          C58   1.276       .  A
O46         Co51   2.015       .  S
O46          C58   1.298       .  A
O47         Co50   1.891       .  S
O47          C57   1.278       .  A
O48         Co53   1.997       .  S
O48          C55   1.264       .  A
O49         Co52   1.970       .  S
O49          C56   1.277       .  A
Co50         O54   1.870       .  S
Co51         O54   1.973       .  S
Co52         O54   2.050       .  S
Co53         O54   1.995       .  S
C55         C330   1.502       .  S
C56         C347   1.527       .  S
C57         C386   1.502       .  S
C58         C403   1.433       .  S
O59         Co79   1.999       .  S
O59          C67   1.281       .  A
O60         Co80   1.913       .  S
O60          C68   1.244       .  A
O61         Co81   2.023       .  S
O61          C69   1.271       .  A
O62         Co82   2.074       .  S
O62          C70   1.293       .  A
O63         Co80   1.998       .  S
O63          C69   1.262       .  A
O64         Co79   1.974       .  S
O64          C70   1.261       .  A
O65         Co82   2.026       .  S
O65          C68   1.276       .  A
O66         Co81   2.016       .  S
O66          C67   1.278       .  A
C67         C389   1.497       .  S
C68         C263   1.446       .  S
C69         C288   1.523       .  S
C70         C305   1.499       .  S
O71         Co79   2.129       .  S
O71          C84   1.305       .  A
O72         Co80   2.103       .  S
O72          C85   1.303       .  A
O73         Co81   1.980       .  S
O73          C86   1.248       .  A
O74         Co82   2.135       .  S
O74          C87   1.304       .  A
O75         Co80   1.932       .  S
O75          C87   1.276       .  A
O76         Co79   1.906       .  S
O76          C86   1.241       .  A
O77         Co82   1.900       .  S
O77          C84   1.266       .  A
O78         Co81   1.922       .  S
O78          C85   1.281       .  A
Co79         O83   2.109       .  S
Co80         O83   1.999       .  S
Co81         O83   1.885       .  S
Co82         O83   2.013       .  S
C84         C361   1.523       .  S
C85         C375   1.515       .  S
C86         C246   1.423       .  S
C87         C277   1.526       .  S
O88        Co108   2.016       .  S
O88          C96   1.265       .  A
O89        Co109   1.914       .  S
O89          C97   1.240       .  A
O90        Co110   2.017       .  S
O90          C98   1.273       .  A
O91        Co111   2.003       .  S
O91          C99   1.256       .  A
O92        Co109   2.045       .  S
O92          C98   1.283       .  A
O93        Co108   2.011       .  S
O93          C99   1.261       .  A
O94        Co111   1.931       .  S
O94          C97   1.240       .  A
O95        Co110   1.989       .  S
O95          C96   1.267       .  A
C96         C501   1.514       .  S
C97         C249   1.401       .  S
C98         C218   1.515       .  S
C99         C235   1.521       .  S
O100       Co108   1.919       .  S
O100        C113   1.271       .  A
O101       Co109   1.982       .  S
O101        C114   1.258       .  A
O102       Co110   1.995       .  S
O102        C625   1.263       .  A
O103       Co111   2.064       .  S
O103        C116   1.308       .  A
O104       Co109   1.893       .  S
O104        C116   1.273       .  A
O105       Co108   1.965       .  S
O105        C625   1.246       .  A
O106       Co111   2.130       .  S
O106        C113   1.310       .  A
O107       Co110   2.023       .  S
O107        C114   1.266       .  A
Co108       O112   1.885       .  S
Co109       O112   1.923       .  S
Co110       O112   2.110       .  S
Co111       O112   2.299       .  S
C113        C470   1.523       .  S
C114        C487   1.516       .  S
C115        O612   1.263       .  A
C115        O615   1.246       .  A
C115        C260   1.445   1_556  S
C116        C204   1.515       .  S
O117       Co137   1.993       .  S
O117        C125   1.274       .  A
O118       Co138   1.942       .  S
O118        C126   1.249   1_455  A
O119       Co139   2.038       .  S
O119        C637   1.279       .  A
O120      Co1160   2.133       .  S
O120        C128   1.302       .  A
O121      Co1158   2.011       .  S
O121        C127   1.273       .  A
O122       Co647   1.969   1_554  S
O122        C128   1.258       .  A
O123       Co140   1.976       .  S
O123       C2166   1.271       .  A
O124      Co2179   2.076       .  S
O124        C125   1.289       .  A
C125        C344   1.538       .  S
C126       O2163   1.271       .  A
C126        C190   1.412       .  S
C127        O629   1.279       .  A
C127        C274   1.539       .  S
C128        C302   1.534       .  S
O129      Co1157   2.072   1_545  S
O129        C142   1.293       .  A
O130       Co648   2.141       .  S
O130        C143   1.309       .  A
O131       Co139   1.967       .  S
O131       C2184   1.240       .  A
O132      Co2180   2.149   1_455  S
O132        C145   1.311       .  A
O133       Co138   1.907       .  S
O133        C145   1.274       .  A
O134       Co137   1.929       .  S
O134        C144   1.243       .  A
O135       Co650   1.915       .  S
O135        C142   1.267       .  A
O136      Co1159   1.942       .  S
O136        C143   1.282   1_565  A
Co137       O632   1.969       .  S
Co137      O1149   2.072       .  S
Co137      O3201   2.124       .  S
Co138      O1141   2.011   1_545  S
Co138       O640   2.141   1_554  S
Co138       O651   2.032   1_545  S
Co139      O2164   2.076       .  S
Co139      O1156   1.942       .  S
Co139      O1161   1.911       .  S
Co140      O1140   2.133       .  S
Co140      O2172   2.149       .  S
Co140       O645   1.915   1_554  S
Co140      O2691   2.034   1_545  S
O141      Co3197   2.124   1_455  S
O141       Co648   2.032   1_565  S
O141      Co1159   1.911       .  S
O141      Co2690   2.035   1_465  S
C142        C316   1.505       .  S
C143        C333   1.529       .  S
C144       O2171   1.240       .  A
C144       C2216   1.414       .  S
C145        C291   1.524       .  S
O146       Co166   1.995       .  S
O146        C154   1.277       .  A
O147       Co167   1.930   1_565  S
O147        C155   1.214   1_455  A
O148       Co168   2.109       .  S
O148        C156   1.305       .  A
O149      Co1189   2.063       .  S
O149        C157   1.293       .  A
O150      Co1187   1.948       .  S
O150        C156   1.277       .  A
O151       Co166   2.026       .  S
O151        C157   1.277       .  A
O152       Co169   2.006       .  S
O152       C2195   1.249   1_545  A
O153      Co2208   2.051       .  S
O153        C154   1.286       .  A
C154        C459   1.520       .  S
C155       O2192   1.249   1_565  A
C155        C179   1.428   1_655  S
C156        C207   1.523       .  S
C157        C232   1.536       .  S
O158      Co1186   2.069   1_545  S
O158        C171   1.286       .  A
O159       Co167   2.098       .  S
O159        C172   1.303       .  A
O160       Co168   1.947       .  S
O160       C2213   1.251   1_455  A
O161      Co2209   1.865   1_455  S
O161        C174   1.278       .  A
O162       Co167   2.190       .  S
O162        C174   1.328       .  A
O163       Co166   1.955       .  S
O163        C173   1.258       .  A
O164       Co169   2.013       .  S
O164        C171   1.268       .  A
O165      Co1188   1.932       .  S
O165        C172   1.277   1_565  A
Co166      O1178   2.069       .  S
Co166      O3230   2.018       .  S
Co167      O1170   1.948       .  S
Co167       O170   2.023   1_445  S
Co168      O2193   2.051   1_455  S
Co168      O1185   1.932       .  S
Co168      O1190   2.000   1_455  S
Co169      O1169   2.063       .  S
Co169      O2201   1.865       .  S
Co169      O2210   1.917   1_545  S
O170      Co3226   2.018       .  S
O170      Co1188   2.000   1_655  S
O170      Co2209   1.917   1_565  S
C171        C428   1.552       .  S
C172        C442   1.509       .  S
C173       O2200   1.251       .  A
C173       C2233   1.406       .  S
C174        C221   1.501       .  S
C175        C176   1.402       .  A
C175        C180   1.386       .  A
C175        H182   1.082       .  S
C176       C2184   1.414       .  S
C176       C3237   1.394       .  A
C177        C178   1.379       .  A
C177       C3236   1.394   1_545  A
C177        N184   1.445       .  S
C178       C2219   1.399   1_545  A
C178        H183   1.072       .  S
C179       C2218   1.399   1_565  A
C179       C1200   1.409       .  A
C180       C1199   1.409       .  A
C180        N181   1.448   1_455  S
N181        O185   1.261       .  A
N181        O186   1.262       .  A
N184        O187   1.261       .  A
N184        O188   1.260       .  A
C189        C194   1.377       .  A
C189       C1210   1.394       .  A
C189        H196   1.086       .  S
C190       C1209   1.394   1_545  A
C190       C2231   1.408       .  A
C191        C192   1.381       .  A
C191       C2230   1.408       .  A
C191        N198   1.437       .  S
C192       C3253   1.385       .  A
C192        H197   1.084       .  S
C193       C2213   1.406       .  S
C193        C194   1.401       .  A
C193       C3252   1.385       .  A
C194        N195   1.442       .  S
N195        O199   1.263       .  A
N195        O200   1.261   1_655  A
N198        O201   1.259       .  A
N198       O2242   1.263       .  A
O202       N2238   1.263       .  A
C203        C204   1.404       .  A
C203        C208   1.406       .  A
C203        H210   1.081       .  S
C204        C205   1.410       .  A
C205        C206   1.422       .  A
C205        N212   1.424       .  S
C206        C207   1.416       .  A
C206        H211   1.075       .  S
C207        C208   1.413       .  A
C208        N209   1.420       .  S
N209        O213   1.260       .  A
N209        O214   1.262       .  A
N212        O215   1.262       .  A
N212       O1236   1.261       .  A
O216       N1232   1.261       .  A
C217        C218   1.399       .  A
C217        C222   1.409       .  A
C217        H224   1.070       .  S
C218        C219   1.420       .  A
C219        C220   1.417       .  A
C219        N226   1.420       .  S
C220        C221   1.400       .  A
C220        H225   1.084       .  S
C221        C222   1.423       .  A
C222        N223   1.437   1_455  S
N223        O227   1.260       .  A
N223       O2268   1.261       .  A
N226        O229   1.262       .  A
N226        O230   1.260       .  A
O228       N2263   1.261       .  A
C231        C232   1.397       .  A
C231        C236   1.417       .  A
C231        H238   1.058       .  S
C232        C233   1.426       .  A
C233        C234   1.418       .  A
C233        N240   1.419       .  S
C234        C235   1.399       .  A
C234        H239   1.084       .  S
C235        C236   1.427       .  A
C236        N237   1.435       .  S
N237        O241   1.261       .  A
N237        O242   1.260       .  A
N240        O244   1.262       .  A
N240       O1263   1.261       .  A
O243       N1260   1.261       .  A
C245        C246   1.401       .  A
C245        C250   1.374       .  A
C245        H252   1.083       .  S
C246        C247   1.411       .  A
C247        C248   1.384       .  A
C247        N254   1.449       .  S
C248        C249   1.394       .  A
C248        H253   1.081       .  S
C249        C250   1.404       .  A
C250        N251   1.447       .  S
N251        O255   1.262       .  A
N251        O256   1.261       .  A
N254        O257   1.260       .  A
N254        O258   1.262       .  A
C259        C260   1.409       .  A
C259        C264   1.392       .  A
C259        H266   1.068       .  S
C260        C261   1.397       .  A
C261        C262   1.375       .  A
C261        N268   1.432       .  S
C262        C263   1.400       .  A
C262        H267   1.075       .  S
C263        C264   1.389       .  A
C264        N265   1.431       .  S
N265        O269   1.260       .  A
N265        O270   1.262       .  A
N268        O271   1.261       .  A
N268        O272   1.259       .  A
C273        C274   1.412       .  A
C273        C278   1.432       .  A
C273       H1300   1.083       .  S
C274        C275   1.410       .  A
C275        C276   1.413       .  A
C275        N282   1.411       .  S
C276        C277   1.399       .  A
C276        H281   1.082       .  S
C277        C278   1.423       .  A
C278        N279   1.436       .  S
N279        O284   1.262       .  A
N279       O1303   1.261       .  A
H280       C1293   1.083       .  S
N282        O285   1.257       .  A
N282        O286   1.262   1_455  A
O283       N1299   1.261       .  A
C287        C288   1.412       .  A
C287        C292   1.415       .  A
C287        H294   1.083       .  S
C288        C289   1.434       .  A
C289        C290   1.419       .  A
C289        N296   1.444       .  S
C290        C291   1.404       .  A
C290        H295   1.075       .  S
C291        C292   1.417       .  A
C292        N293   1.427       .  S
N293        O297   1.260       .  A
N293        O298   1.263       .  A
N296        O299   1.258       .  A
N296        O300   1.262       .  A
C301        C302   1.415       .  A
C301        C306   1.426       .  A
C301        H308   1.071       .  S
C302        C303   1.427       .  A
C303        C304   1.419       .  A
C303        N310   1.432       .  S
C304        C305   1.399       .  A
C304        H309   1.075       .  S
C305        C306   1.395       .  A
C306        N307   1.433       .  S
N307        O311   1.256       .  A
N307        O312   1.263       .  A
N310        O313   1.262       .  A
N310        O314   1.263       .  A
C315        C316   1.397       .  A
C315        C320   1.410       .  A
C315        H322   1.081       .  S
C316        C317   1.426       .  A
C317        C318   1.422       .  A
C317        N324   1.445       .  S
C318        C319   1.409       .  A
C318        H323   1.081       .  S
C319        C320   1.413       .  A
C320        N321   1.431       .  S
N321        O326   1.260       .  A
N321       O1345   1.256   1_545  A
N324        O328   1.259       .  A
N324       O2367   1.260       .  A
O325       N1341   1.256       .  A
O327       N2364   1.260       .  A
C329        C330   1.408       .  A
C329        C334   1.423       .  A
C329        H336   1.083       .  S
C330        C331   1.411       .  A
C331        C332   1.423       .  A
C331        N338   1.445       .  S
C332        C333   1.414       .  A
C332        H337   1.071       .  S
C333        C334   1.422       .  A
C334        N335   1.437       .  S
N335        O339   1.263       .  A
N335        O340   1.260       .  A
N338        O341   1.262       .  A
N338        O342   1.258       .  A
C343        C344   1.409       .  A
C343        C348   1.415       .  A
C343        H350   1.076       .  S
C344        C345   1.434       .  A
C345        C346   1.430       .  A
C345        N352   1.436       .  S
C346        C347   1.409       .  A
C346        H351   1.083       .  S
C347        C348   1.415       .  A
C348        N349   1.427       .  S
N349        O354   1.261       .  A
N349       O2393   1.259       .  A
N352        O355   1.261       .  A
N352        O356   1.262       .  A
O353       N2389   1.259       .  A
C357        C362   1.416       .  A
C357       C1378   1.411       .  A
C357        H364   1.081       .  S
C358        C359   1.418       .  A
C358       C1377   1.410       .  A
C359        C360   1.422   1_545  A
C359        N366   1.430       .  S
C360       C1381   1.412       .  A
C360        H365   1.078       .  S
C361        C362   1.406       .  A
C361       C1380   1.412       .  A
C362        N363   1.424       .  S
N363        O367   1.258       .  A
N363        O368   1.262       .  A
N366        O369   1.262       .  A
N366        O370   1.260       .  A
C371        C372   1.411       .  A
C371       C2416   1.427       .  A
C371        H378   1.083       .  S
C372       C2413   1.416       .  A
C373        C374   1.404       .  A
C373       C2412   1.416   1_455  A
C373        N380   1.421       .  S
C374        C375   1.403       .  A
C374        H379   1.084       .  S
C375        C376   1.427       .  A
C376       C2411   1.427   1_455  A
C376        N377   1.436       .  S
N377        O382   1.261       .  A
N377       O2421   1.256       .  A
N380        O383   1.261   1_455  A
N380        O384   1.260       .  A
O381       N2417   1.256       .  A
C385        C386   1.404       .  A
C385        C390   1.408       .  A
C385        H392   1.083       .  S
C386        C387   1.419       .  A
C387        C388   1.420       .  A
C387        N394   1.438       .  S
C388        C389   1.411       .  A
C388        H393   1.082       .  S
C389        C390   1.409       .  A
C390        N391   1.434       .  S
N391        O395   1.261       .  A
N391        O396   1.262       .  A
N394        O397   1.263       .  A
N394        O398   1.262       .  A
C399        C400   1.397       .  A
C399        C404   1.390       .  A
C399        H406   1.082       .  S
C400        C401   1.408       .  A
C401        C402   1.385       .  A
C401        N918   1.444       .  S
C402        C403   1.397       .  A
C402        H407   1.080       .  S
C403        C404   1.408       .  A
C404        N405   1.444       .  S
N405        O409   1.262       .  A
N405        O410   1.261       .  A
N408        C911   1.444       .  S
N408        O411   1.259   1_556  A
N408        O412   1.262       .  A
C413        C414   1.396       .  A
C413        C418   1.397       .  A
C413        H420   1.084       .  S
C414        C415   1.418       .  A
C415        C416   1.396       .  A
C415        N422   1.447       .  S
C416        C417   1.395       .  A
C416        H421   1.085       .  S
C417        C418   1.414       .  A
C418        N419   1.445       .  S
N419        O423   1.262       .  A
N419        O424   1.263       .  A
N422        O425   1.263       .  A
N422        O426   1.263       .  A
C427        C428   1.418       .  A
C427        C432   1.428       .  A
C427        H434   1.068       .  S
C428        C429   1.430       .  A
C429        C430   1.429       .  A
C429        N436   1.432       .  S
C430        C431   1.409       .  A
C430        H435   1.082       .  S
C431        C432   1.397       .  A
C432        N433   1.434       .  S
N433        O437   1.258       .  A
N433        O438   1.259       .  A
N436        O439   1.262       .  A
N436        O440   1.261       .  A
C441        C442   1.406       .  A
C441        C446   1.412       .  A
C441        H448   1.075       .  S
C442        C443   1.418       .  A
C443        C444   1.422       .  A
C443        N450   1.435       .  S
C444        C445   1.413       .  A
C444        H449   1.080       .  S
C445        C446   1.415       .  A
C446        N447   1.429       .  S
N447        O452   1.262       .  A
N447       O1471   1.260       .  A
N450        O453   1.262       .  A
N450        O454   1.261       .  A
O451       N1467   1.260       .  A
C455        C456   1.393       .  A
C455        C460   1.417       .  A
C455        H462   1.083       .  S
C456        C457   1.431       .  A
C457        C458   1.416       .  A
C457        N464   1.436       .  S
C458        C459   1.399       .  A
C458        H463   1.076       .  S
C459        C460   1.426       .  A
C460        N461   1.425       .  S
N461        O465   1.260       .  A
N461        O466   1.262       .  A
N464        O467   1.263       .  A
N464        O468   1.262       .  A
C469        C470   1.404       .  A
C469       C2004   1.425       .  A
C469        H476   1.083       .  S
C470        C471   1.424       .  A
C471       C2002   1.411       .  A
C471        N478   1.428       .  S
C472        C473   1.399       .  A
C472       C2001   1.411   1_544  A
C472        H477   1.083       .  S
C473        C474   1.417       .  A
C474       C1999   1.425   1_544  A
C474        N475   1.433       .  S
N475        O479   1.257       .  A
N475        O480   1.263       .  A
N478        O482   1.263       .  A
N478       O1501   1.258       .  A
O481       N1498   1.258   1_545  A
C483        C484   1.410   1_556  A
C483       C2528   1.416       .  A
C483        H490   1.080   1_556  S
C484        C485   1.433       .  A
C485       C3036   1.422   1_554  A
C485       N1002   1.445       .  S
C486        C487   1.407       .  A
C486       C3035   1.422   1_455  A
C486        H491   1.074       .  S
C487        C998   1.411       .  A
C488       C2523   1.416   1_455  A
C488        C997   1.411       .  A
C488        N489   1.443       .  S
N489        O493   1.255       .  A
N489       O1004   1.262       .  A
N492        C995   1.445       .  S
N492        O495   1.256       .  A
N492       O1006   1.261       .  A
O494        N999   1.262       .  A
O496       N1002   1.261       .  A
C497        C498   1.384       .  A
C497        C502   1.410       .  A
C497        H504   1.079       .  S
C498       C1009   1.421   1_554  A
C499        C500   1.415       .  A
C499       C1008   1.421       .  A
C499        N506   1.431       .  S
C500        C501   1.404       .  A
C500        H505   1.083       .  S
C501       C1012   1.427       .  A
C502       C1011   1.427   1_554  A
C502        N503   1.425       .  S
N503        O507   1.262       .  A
N503       O1018   1.260       .  A
N506        O509   1.261       .  A
N506        O510   1.263       .  A
O508       N1013   1.260       .  A
O511       Co531   1.970       .  S
O512       Co532   1.931       .  S
O512        C520   1.270       .  A
O513       Co533   1.920       .  S
O513        C521   1.281       .  A
O514       Co534   1.930       .  S
O514        C522   1.276       .  A
O515       Co532   2.125       .  S
O515        C521   1.309       .  A
O516       Co531   2.073       .  S
O516        C522   1.291       .  A
O517       Co534   2.122       .  S
O517        C520   1.306       .  A
O518       Co533   1.973       .  S
C519        C910   1.433   1_554  S
C520        C941   1.518       .  S
C521        C994   1.527       .  S
C522        C983   1.508       .  S
O523       Co531   2.004       .  S
O523        C536   1.269       .  A
O524       Co532   1.951       .  S
O524        C537   1.249       .  A
O525       Co533   2.043       .  S
O525        C538   1.281       .  A
O526       Co534   2.036       .  S
O526        C539   1.286       .  A
O527       Co532   1.935       .  S
O527        C539   1.247       .  A
O528       Co531   1.990       .  S
O528        C538   1.275       .  A
O529       Co534   2.067       .  S
O529        C536   1.293       .  A
O530       Co533   2.039       .  S
O530        C537   1.274       .  A
Co531       O535   2.141       .  S
Co532       O535   2.051       .  S
Co533       O535   1.866       .  S
Co534       O535   1.989       .  S
C536        C955   1.518       .  S
C537        C966   1.513       .  S
C538       C1008   1.504       .  S
C539        C924   1.442       .  S
O540       Co560   1.925       .  S
O540        C548   1.251       .  A
O541       Co561   1.990       .  S
O541        C549   1.256       .  A
O542       Co562   2.170       .  S
O542        C550   1.315       .  A
O543       Co563   2.009       .  S
O543        C551   1.281       .  A
O544       Co561   1.908       .  S
O544        C550   1.268       .  A
O545       Co560   2.037       .  S
O545        C551   1.287       .  A
O546       Co563   1.984       .  S
O546        C549   1.264       .  A
O547       Co562   2.033       .  S
O547        C548   1.293       .  A
C548        C927   1.437       .  S
C549        C829   1.512       .  S
C550        C882   1.520       .  S
C551        C868   1.527       .  S
O552       Co560   2.018       .  S
O552        C565   1.271       .  A
O553       Co561   2.129       .  S
O553        C566   1.309       .  A
O554       Co562   2.124       .  S
O554        C567   1.307       .  A
O555       Co563   1.961       .  S
O555        C568   1.276       .  A
O556       Co561   2.015       .  S
O556        C568   1.298       .  A
O557       Co560   1.891       .  S
O557        C567   1.278       .  A
O558       Co563   1.997       .  S
O558        C565   1.264       .  A
O559       Co562   1.970       .  S
O559        C566   1.277       .  A
Co560       O564   1.870       .  S
Co561       O564   1.973       .  S
Co562       O564   2.050       .  S
Co563       O564   1.995       .  S
C565        C840   1.502       .  S
C566        C857   1.527       .  S
C567        C896   1.502       .  S
C568        C913   1.433       .  S
O569       Co589   1.999       .  S
O569        C577   1.281       .  A
O570       Co590   1.913       .  S
O570        C578   1.244       .  A
O571       Co591   2.023       .  S
O571        C579   1.271       .  A
O572       Co592   2.074       .  S
O572        C580   1.293       .  A
O573       Co590   1.998       .  S
O573        C579   1.262       .  A
O574       Co589   1.974       .  S
O574        C580   1.261       .  A
O575       Co592   2.026       .  S
O575        C578   1.276       .  A
O576       Co591   2.016       .  S
O576        C577   1.278       .  A
C577        C899   1.497       .  S
C578        C773   1.446       .  S
C579        C798   1.523       .  S
C580        C815   1.499       .  S
O581       Co589   2.129       .  S
O581        C594   1.306       .  A
O582       Co590   2.103       .  S
O582        C595   1.303       .  A
O583       Co591   1.980       .  S
O583        C596   1.248       .  A
O584       Co592   2.135       .  S
O584        C597   1.304       .  A
O585       Co590   1.932       .  S
O585        C597   1.276       .  A
O586       Co589   1.906       .  S
O586        C596   1.241       .  A
O587       Co592   1.900       .  S
O587        C594   1.266       .  A
O588       Co591   1.922       .  S
O588        C595   1.281       .  A
Co589       O593   2.109       .  S
Co590       O593   1.999       .  S
Co591       O593   1.885       .  S
Co592       O593   2.013       .  S
C594        C871   1.523       .  S
C595        C885   1.515       .  S
C596        C756   1.423       .  S
C597        C787   1.526       .  S
O598       Co618   2.016       .  S
O598        C606   1.265       .  A
O599       Co619   1.914       .  S
O599        C607   1.240       .  A
O600       Co620   2.017       .  S
O600        C608   1.273       .  A
O601       Co621   2.003       .  S
O601        C609   1.256       .  A
O602       Co619   2.045       .  S
O602        C608   1.283       .  A
O603       Co618   2.011       .  S
O603        C609   1.261       .  A
O604       Co621   1.931       .  S
O604        C607   1.240       .  A
O605       Co620   1.989       .  S
O605        C606   1.267       .  A
C606       C1011   1.514       .  S
C607        C759   1.401       .  S
C608        C728   1.515       .  S
C609        C745   1.521       .  S
O610       Co618   1.919       .  S
O610        C623   1.271       .  A
O611       Co619   1.982       .  S
O611        C624   1.258       .  A
O612       Co620   1.995       .  S
O613       Co621   2.064       .  S
O613        C626   1.308       .  A
O614       Co619   1.893       .  S
O614        C626   1.273       .  A
O615       Co618   1.965       .  S
O616       Co621   2.130       .  S
O616        C623   1.310       .  A
O617       Co620   2.023       .  S
O617        C624   1.266       .  A
Co618       O622   1.885       .  S
Co619       O622   1.923       .  S
Co620       O622   2.110       .  S
Co621       O622   2.299       .  S
C623        C980   1.523       .  S
C624        C997   1.516       .  S
C625        C770   1.445       .  S
C626        C714   1.515       .  S
O627       Co647   1.993       .  S
O627        C635   1.274       .  A
O628       Co648   1.942       .  S
O628        C636   1.249   1_455  A
O629       Co649   2.038   1_554  S
O630      Co1670   2.133       .  S
O630        C638   1.302       .  A
O631      Co1668   2.011       .  S
O631        C637   1.273       .  A
O632        C638   1.258       .  A
O633       Co650   1.976       .  S
O633       C2676   1.271       .  A
O634      Co2689   2.076       .  S
O634        C635   1.289       .  A
C635        C854   1.538       .  S
C636       O2673   1.271       .  A
C636        C700   1.412       .  S
C637        C784   1.539       .  S
C638        C812   1.534       .  S
O639      Co1667   2.072   1_545  S
O639        C652   1.293       .  A
O640        C653   1.309       .  A
O641       Co649   1.967       .  S
O641       C2694   1.240       .  A
O642      Co2690   2.149   1_455  S
O642        C655   1.311       .  A
O643       Co648   1.907       .  S
O643        C655   1.274       .  A
O644       Co647   1.929       .  S
O644        C654   1.243       .  A
O645        C652   1.267       .  A
O646      Co1669   1.942       .  S
O646        C653   1.282   1_565  A
Co647      O1659   2.072       .  S
Co647      O3711   2.124   1_556  S
Co648      O1651   2.011   1_545  S
Co649      O2674   2.076       .  S
Co649      O1666   1.942       .  S
Co649      O1671   1.911   1_556  S
Co650      O1650   2.133       .  S
Co650      O2682   2.149       .  S
Co650      O2181   2.034   1_545  S
O651      Co3707   2.124   1_454  S
O651      Co1669   1.911   1_554  S
O651      Co2180   2.035   1_465  S
C652        C826   1.505       .  S
C653        C843   1.529       .  S
C654       O2681   1.240       .  A
C654       C2726   1.414       .  S
C655        C801   1.524       .  S
O656       Co676   1.995       .  S
O656        C664   1.277       .  A
O657       Co677   1.930   1_565  S
O657        C665   1.214   1_455  A
O658       Co678   2.109       .  S
O658        C666   1.305       .  A
O659      Co1699   2.063       .  S
O659        C667   1.293       .  A
O660      Co1697   1.948       .  S
O660        C666   1.277       .  A
O661       Co676   2.026       .  S
O661        C667   1.277       .  A
O662       Co679   2.006       .  S
O662       C2705   1.249   1_545  A
O663      Co2718   2.051       .  S
O663        C664   1.286       .  A
C664        C969   1.520       .  S
C665       O2702   1.249   1_565  A
C665        C689   1.428   1_655  S
C666        C717   1.523       .  S
C667        C742   1.536       .  S
O668      Co1696   2.069   1_545  S
O668        C681   1.286       .  A
O669       Co677   2.098       .  S
O669        C682   1.303       .  A
O670       Co678   1.947       .  S
O670       C2723   1.251   1_455  A
O671      Co2719   1.865   1_455  S
O671        C684   1.278       .  A
O672       Co677   2.190       .  S
O672        C684   1.328       .  A
O673       Co676   1.955       .  S
O673        C683   1.258       .  A
O674       Co679   2.013       .  S
O674        C681   1.268       .  A
O675      Co1698   1.932       .  S
O675        C682   1.277   1_565  A
Co676      O1688   2.069       .  S
Co676      O3740   2.018       .  S
Co677      O1680   1.948       .  S
Co677       O680   2.023   1_445  S
Co678      O2703   2.051   1_455  S
Co678      O1695   1.932       .  S
Co678      O1700   2.000   1_455  S
Co679      O1679   2.063       .  S
Co679      O2711   1.865       .  S
Co679      O2720   1.917   1_545  S
O680      Co3736   2.018       .  S
O680      Co1698   2.000   1_655  S
O680      Co2719   1.917   1_565  S
C681        C938   1.552       .  S
C682        C952   1.509       .  S
C683       O2710   1.251       .  A
C683       C2743   1.406       .  S
C684        C731   1.501       .  S
C685        C686   1.402       .  A
C685        C690   1.386       .  A
C685        H692   1.082       .  S
C686       C2694   1.414       .  S
C686       C3747   1.394       .  A
C687       C3746   1.394   1_545  A
C687        C688   1.379       .  A
C687        N694   1.445       .  S
C688       C2729   1.399   1_545  A
C688        H693   1.072       .  S
C689       C2728   1.399   1_565  A
C689       C1710   1.409       .  A
C690       C1709   1.409       .  A
C690        N691   1.448   1_455  S
N691        O695   1.261       .  A
N691        O696   1.262       .  A
N694        O697   1.261       .  A
N694        O698   1.260       .  A
C699       C1720   1.394       .  A
C699        C704   1.377       .  A
C699        H706   1.086       .  S
C700       C1719   1.394   1_545  A
C700       C2741   1.408       .  A
C701       C2740   1.408       .  A
C701        C702   1.381       .  A
C701        N708   1.437       .  S
C702       C3763   1.385       .  A
C702        H707   1.084       .  S
C703       C2723   1.406       .  S
C703       C3762   1.385       .  A
C703        C704   1.401       .  A
C704        N705   1.442       .  S
N705        O709   1.263       .  A
N705        O710   1.261   1_655  A
N708        O711   1.259       .  A
N708       O2752   1.263       .  A
O712       N2748   1.263       .  A
C713        C714   1.404       .  A
C713        C718   1.406       .  A
C713        H720   1.081       .  S
C714        C715   1.410       .  A
C715        C716   1.422       .  A
C715        N722   1.424       .  S
C716        C717   1.416       .  A
C716        H721   1.075       .  S
C717        C718   1.413       .  A
C718        N719   1.420       .  S
N719        O723   1.260       .  A
N719        O724   1.262       .  A
N722        O725   1.262       .  A
N722       O1746   1.261       .  A
O726       N1742   1.261       .  A
C727        C728   1.399       .  A
C727        C732   1.409       .  A
C727        H734   1.070       .  S
C728        C729   1.420       .  A
C729        C730   1.417       .  A
C729        N736   1.420       .  S
C730        C731   1.400       .  A
C730        H735   1.084       .  S
C731        C732   1.423       .  A
C732        N733   1.437   1_455  S
N733        O737   1.260       .  A
N733       O2778   1.261       .  A
N736        O739   1.262       .  A
N736        O740   1.260       .  A
O738       N2773   1.261       .  A
C741        C742   1.397       .  A
C741        C746   1.417       .  A
C741        H748   1.058       .  S
C742        C743   1.426       .  A
C743        C744   1.418       .  A
C743        N750   1.419       .  S
C744        C745   1.399       .  A
C744        H749   1.084       .  S
C745        C746   1.427       .  A
C746        N747   1.435       .  S
N747        O751   1.261       .  A
N747        O752   1.260       .  A
N750       O1773   1.261       .  A
N750        O754   1.262       .  A
O753       N1770   1.261       .  A
C755        C756   1.401       .  A
C755        C760   1.374       .  A
C755        H762   1.083       .  S
C756        C757   1.411       .  A
C757        C758   1.384       .  A
C757        N764   1.449       .  S
C758        C759   1.394       .  A
C758        H763   1.081       .  S
C759        C760   1.404       .  A
C760        N761   1.447       .  S
N761        O765   1.262       .  A
N761        O766   1.261       .  A
N764        O767   1.260       .  A
N764        O768   1.262       .  A
C769        C770   1.409       .  A
C769        C774   1.392       .  A
C769        H776   1.068       .  S
C770        C771   1.396       .  A
C771        C772   1.375       .  A
C771        N778   1.432       .  S
C772        C773   1.400       .  A
C772        H777   1.075       .  S
C773        C774   1.389       .  A
C774        N775   1.431       .  S
N775        O779   1.260       .  A
N775        O780   1.262       .  A
N778        O781   1.261       .  A
N778        O782   1.259       .  A
C783        C784   1.412       .  A
C783        C788   1.432       .  A
C783       H1810   1.083       .  S
C784        C785   1.410       .  A
C785        C786   1.413       .  A
C785        N792   1.411       .  S
C786        C787   1.399       .  A
C786        H791   1.082       .  S
C787        C788   1.423       .  A
C788        N789   1.436       .  S
N789       O1813   1.261       .  A
N789        O794   1.262       .  A
H790       C1803   1.083       .  S
N792        O795   1.257       .  A
N792        O796   1.262   1_455  A
O793       N1809   1.261       .  A
C797        C798   1.412       .  A
C797        C802   1.415       .  A
C797        H804   1.083       .  S
C798        C799   1.434       .  A
C799        C800   1.419       .  A
C799        N806   1.444       .  S
C800        C801   1.404       .  A
C800        H805   1.075       .  S
C801        C802   1.417       .  A
C802        N803   1.427       .  S
N803        O807   1.260       .  A
N803        O808   1.263       .  A
N806        O809   1.258       .  A
N806        O810   1.262       .  A
C811        C812   1.415       .  A
C811        C816   1.426       .  A
C811        H818   1.071       .  S
C812        C813   1.427       .  A
C813        C814   1.419       .  A
C813        N820   1.432       .  S
C814        C815   1.399       .  A
C814        H819   1.075       .  S
C815        C816   1.395       .  A
C816        N817   1.433       .  S
N817        O821   1.256       .  A
N817        O822   1.263       .  A
N820        O823   1.262       .  A
N820        O824   1.263       .  A
C825        C826   1.397       .  A
C825        C830   1.410       .  A
C825        H832   1.081       .  S
C826        C827   1.426       .  A
C827        C828   1.422       .  A
C827        N834   1.445       .  S
C828        C829   1.409       .  A
C828        H833   1.081       .  S
C829        C830   1.413       .  A
C830        N831   1.431       .  S
N831       O1855   1.256   1_545  A
N831        O836   1.260       .  A
N834       O2877   1.260       .  A
N834        O838   1.259       .  A
O835       N1851   1.256       .  A
O837       N2874   1.260       .  A
C839        C840   1.408       .  A
C839        C844   1.423       .  A
C839        H846   1.083       .  S
C840        C841   1.411       .  A
C841        C842   1.423       .  A
C841        N848   1.445       .  S
C842        C843   1.414       .  A
C842        H847   1.071       .  S
C843        C844   1.422       .  A
C844        N845   1.437       .  S
N845        O849   1.263       .  A
N845        O850   1.260       .  A
N848        O851   1.262       .  A
N848        O852   1.258       .  A
C853        C854   1.409       .  A
C853        C858   1.415       .  A
C853        H860   1.076       .  S
C854        C855   1.434       .  A
C855        C856   1.430       .  A
C855        N862   1.436       .  S
C856        C857   1.409       .  A
C856        H861   1.083       .  S
C857        C858   1.415       .  A
C858        N859   1.427       .  S
N859       O2903   1.259       .  A
N859        O864   1.261       .  A
N862        O865   1.261       .  A
N862        O866   1.262       .  A
O863       N2899   1.259       .  A
C867       C1888   1.411       .  A
C867        C872   1.416       .  A
C867        H874   1.081       .  S
C868       C1887   1.410       .  A
C868        C869   1.418       .  A
C869        C870   1.422   1_545  A
C869        N876   1.430       .  S
C870       C1891   1.412       .  A
C870        H875   1.078       .  S
C871       C1890   1.412       .  A
C871        C872   1.406       .  A
C872        N873   1.424       .  S
N873        O877   1.258       .  A
N873        O878   1.262       .  A
N876        O879   1.262       .  A
N876        O880   1.260       .  A
C881        C882   1.411       .  A
C881       C2926   1.427       .  A
C881        H888   1.083       .  S
C882       C2923   1.416       .  A
C883       C2922   1.416   1_455  A
C883        C884   1.404       .  A
C883        N890   1.421       .  S
C884        C885   1.403       .  A
C884        H889   1.084       .  S
C885        C886   1.428       .  A
C886       C2921   1.427   1_455  A
C886        N887   1.436       .  S
N887       O2931   1.256       .  A
N887        O892   1.261       .  A
N890        O893   1.261   1_455  A
N890        O894   1.260       .  A
O891       N2927   1.256       .  A
C895        C896   1.404       .  A
C895        C900   1.408       .  A
C895        H902   1.083       .  S
C896        C897   1.419       .  A
C897        C898   1.420       .  A
C897        N904   1.438       .  S
C898        C899   1.411       .  A
C898        H903   1.082       .  S
C899        C900   1.409       .  A
C900        N901   1.434       .  S
N901        O905   1.261       .  A
N901        O906   1.262       .  A
N904        O907   1.263       .  A
N904        O908   1.262       .  A
C909        C910   1.397       .  A
C909        C914   1.390       .  A
C909        H916   1.082       .  S
C910        C911   1.408       .  A
C911        C912   1.384       .  A
C912        C913   1.397       .  A
C912        H917   1.080       .  S
C913        C914   1.408       .  A
C914        N915   1.444       .  S
N915        O919   1.262       .  A
N915        O920   1.261       .  A
N918        O921   1.259       .  A
N918        O922   1.262       .  A
C923        C924   1.396       .  A
C923        C928   1.397       .  A
C923        H930   1.084       .  S
C924        C925   1.418       .  A
C925        C926   1.396       .  A
C925        N932   1.447       .  S
C926        C927   1.395       .  A
C926        H931   1.085       .  S
C927        C928   1.414       .  A
C928        N929   1.445       .  S
N929        O933   1.262       .  A
N929        O934   1.263       .  A
N932        O935   1.263       .  A
N932        O936   1.263       .  A
C937        C938   1.418       .  A
C937        C942   1.428       .  A
C937        H944   1.068       .  S
C938        C939   1.430       .  A
C939        C940   1.429       .  A
C939        N946   1.432       .  S
C940        C941   1.409       .  A
C940        H945   1.082       .  S
C941        C942   1.397       .  A
C942        N943   1.434       .  S
N943        O947   1.258       .  A
N943        O948   1.259       .  A
N946        O949   1.262       .  A
N946        O950   1.261       .  A
C951        C952   1.406       .  A
C951        C956   1.412       .  A
C951        H958   1.075       .  S
C952        C953   1.418       .  A
C953        C954   1.422       .  A
C953        N960   1.435       .  S
C954        C955   1.413       .  A
C954        H959   1.080       .  S
C955        C956   1.415       .  A
C956        N957   1.429       .  S
N957       O1981   1.260       .  A
N957        O962   1.262       .  A
N960        O963   1.262       .  A
N960        O964   1.261       .  A
O961       N1977   1.260       .  A
C965        C966   1.393       .  A
C965        C970   1.417       .  A
C965        H972   1.083       .  S
C966        C967   1.431       .  A
C967        C968   1.416       .  A
C967        N974   1.436       .  S
C968        C969   1.399       .  A
C968        H973   1.076       .  S
C969        C970   1.426       .  A
C970        N971   1.425       .  S
N971        O975   1.260       .  A
N971        O976   1.262       .  A
N974        O977   1.263       .  A
N974        O978   1.262       .  A
C979        C980   1.404       .  A
C979       C1494   1.425   1_556  A
C979        H986   1.083       .  S
C980        C981   1.424       .  A
C981       C1492   1.411   1_556  A
C981        N988   1.428       .  S
C982       C1491   1.411   1_545  A
C982        C983   1.399       .  A
C982        H987   1.083       .  S
C983        C984   1.417       .  A
C984       C1489   1.425   1_545  A
C984        N985   1.433       .  S
N985        O989   1.257       .  A
N985        O990   1.263       .  A
N988       O2011   1.258       .  A
N988        O992   1.263       .  A
O991       N2008   1.258   1_545  A
C993        C994   1.410       .  A
C993       C3038   1.416       .  A
C993       H1000   1.080       .  S
C994        C995   1.433       .  A
C995       C2526   1.422       .  A
C996       C2525   1.422   1_456  A
C996        C997   1.407       .  A
C996       H1001   1.074       .  S
C998       C3033   1.416   1_455  A
C998        N999   1.443       .  S
N999       O1003   1.255       .  A
N1002      O1005   1.256       .  A
C1007      C1008   1.384       .  A
C1007      C1012   1.410       .  A
C1007      H1014   1.079       .  S
C1009      C1010   1.415       .  A
C1009      N1016   1.431       .  S
C1010      C1011   1.404       .  A
C1010      H1015   1.083       .  S
C1012      N1013   1.425       .  S
N1013      O1017   1.262       .  A
N1016      O1019   1.261   1_556  A
N1016      O1020   1.263       .  A
O1021     Co1041   1.970       .  S
O1021      C1539   1.245       .  A
O1022     Co1042   1.930       .  S
O1022      C1030   1.270       .  A
O1023     Co1043   1.920       .  S
O1023      C1031   1.281       .  A
O1024     Co1044   1.930       .  S
O1024      C1032   1.276       .  A
O1025     Co1042   2.125       .  S
O1025      C1031   1.309       .  A
O1026     Co1041   2.074       .  S
O1026      C1032   1.291       .  A
O1027     Co1044   2.122       .  S
O1027      C1030   1.306       .  A
O1028     Co1043   1.973       .  S
O1028      C1539   1.235       .  A
C1029      O1531   1.245       .  A
C1029      O1538   1.235       .  A
C1029      C1420   1.433       .  S
C1030      C1451   1.518       .  S
C1031      C1504   1.527       .  S
C1032      C1493   1.508       .  S
O1033     Co1041   2.004       .  S
O1033      C1046   1.269       .  A
O1034     Co1042   1.951       .  S
O1034      C1047   1.249       .  A
O1035     Co1043   2.043       .  S
O1035      C1048   1.281       .  A
O1036     Co1044   2.036       .  S
O1036      C1049   1.286       .  A
O1037     Co1042   1.935       .  S
O1037      C1049   1.247       .  A
O1038     Co1041   1.990       .  S
O1038      C1048   1.275       .  A
O1039     Co1044   2.067       .  S
O1039      C1046   1.293       .  A
O1040     Co1043   2.039       .  S
O1040      C1047   1.274       .  A
Co1041     O1045   2.141       .  S
Co1042     O1045   2.051       .  S
Co1043     O1045   1.866       .  S
Co1044     O1045   1.989       .  S
C1046      C1465   1.518       .  S
C1047      C1476   1.513       .  S
C1048      C1518   1.504       .  S
C1049      C1434   1.442       .  S
O1050     Co1070   1.925       .  S
O1050      C1058   1.251       .  A
O1051     Co1071   1.990       .  S
O1051      C1059   1.256       .  A
O1052     Co1072   2.170       .  S
O1052      C1060   1.315       .  A
O1053     Co1073   2.009       .  S
O1053      C1061   1.281       .  A
O1054     Co1071   1.908       .  S
O1054      C1060   1.268       .  A
O1055     Co1070   2.037       .  S
O1055      C1061   1.287       .  A
O1056     Co1073   1.984       .  S
O1056      C1059   1.264       .  A
O1057     Co1072   2.033       .  S
O1057      C1058   1.293       .  A
C1058      C1437   1.437       .  S
C1059      C1339   1.512       .  S
C1060      C1392   1.520       .  S
C1061      C1378   1.527       .  S
O1062     Co1070   2.017       .  S
O1062      C1075   1.271       .  A
O1063     Co1071   2.129       .  S
O1063      C1076   1.309       .  A
O1064     Co1072   2.124       .  S
O1064      C1077   1.307       .  A
O1065     Co1073   1.961       .  S
O1065      C1078   1.276       .  A
O1066     Co1071   2.015       .  S
O1066      C1078   1.298       .  A
O1067     Co1070   1.891       .  S
O1067      C1077   1.278       .  A
O1068     Co1073   1.997       .  S
O1068      C1075   1.264       .  A
O1069     Co1072   1.970       .  S
O1069      C1076   1.277       .  A
Co1070     O1074   1.870       .  S
Co1071     O1074   1.973       .  S
Co1072     O1074   2.050       .  S
Co1073     O1074   1.995       .  S
C1075      C1350   1.502       .  S
C1076      C1367   1.527       .  S
C1077      C1406   1.502       .  S
C1078      C1423   1.433       .  S
O1079     Co1099   1.999       .  S
O1079      C1087   1.281       .  A
O1080     Co1100   1.913       .  S
O1080      C1088   1.243       .  A
O1081     Co1101   2.023       .  S
O1081      C1089   1.271       .  A
O1082     Co1102   2.074       .  S
O1082      C1090   1.293       .  A
O1083     Co1100   1.997       .  S
O1083      C1089   1.262       .  A
O1084     Co1099   1.974       .  S
O1084      C1090   1.261       .  A
O1085     Co1102   2.026       .  S
O1085      C1088   1.276       .  A
O1086     Co1101   2.016       .  S
O1086      C1087   1.278       .  A
C1087      C1409   1.497       .  S
C1088      C1283   1.446       .  S
C1089      C1308   1.523       .  S
C1090      C1325   1.499       .  S
O1091     Co1099   2.129       .  S
O1091      C1104   1.305       .  A
O1092     Co1100   2.103       .  S
O1092      C1105   1.303       .  A
O1093     Co1101   1.980       .  S
O1093      C1106   1.248       .  A
O1094     Co1102   2.135       .  S
O1094      C1107   1.304       .  A
O1095     Co1100   1.932       .  S
O1095      C1107   1.276       .  A
O1096     Co1099   1.906       .  S
O1096      C1106   1.241       .  A
O1097     Co1102   1.900       .  S
O1097      C1104   1.266       .  A
O1098     Co1101   1.922       .  S
O1098      C1105   1.281       .  A
Co1099     O1103   2.109       .  S
Co1100     O1103   1.999       .  S
Co1101     O1103   1.885       .  S
Co1102     O1103   2.013       .  S
C1104      C1381   1.523       .  S
C1105      C1395   1.515       .  S
C1106      C1266   1.423       .  S
C1107      C1297   1.526       .  S
O1108     Co1128   2.016       .  S
O1108      C1116   1.265       .  A
O1109     Co1129   1.914       .  S
O1109      C1117   1.240       .  A
O1110     Co1130   2.017       .  S
O1110      C1118   1.273       .  A
O1111     Co1131   2.003       .  S
O1111      C1119   1.256       .  A
O1112     Co1129   2.045       .  S
O1112      C1118   1.283       .  A
O1113     Co1128   2.011       .  S
O1113      C1119   1.261       .  A
O1114     Co1131   1.931       .  S
O1114      C1117   1.240       .  A
O1115     Co1130   1.989       .  S
O1115      C1116   1.267       .  A
C1116      C1521   1.514       .  S
C1117      C1269   1.401       .  S
C1118      C1238   1.514       .  S
C1119      C1255   1.521       .  S
O1120     Co1128   1.919       .  S
O1120      C1133   1.271       .  A
O1121     Co1129   1.982       .  S
O1121      C1134   1.258       .  A
O1122     Co1130   1.995       .  S
O1122      C1645   1.263       .  A
O1123     Co1131   2.064       .  S
O1123      C1136   1.308       .  A
O1124     Co1129   1.893       .  S
O1124      C1136   1.273       .  A
O1125     Co1128   1.965       .  S
O1125      C1645   1.246       .  A
O1126     Co1131   2.130       .  S
O1126      C1133   1.310       .  A
O1127     Co1130   2.023       .  S
O1127      C1134   1.266       .  A
Co1128     O1132   1.885       .  S
Co1129     O1132   1.923       .  S
Co1130     O1132   2.110       .  S
Co1131     O1132   2.299       .  S
C1133      C1490   1.523       .  S
C1134      C1507   1.516       .  S
C1135      O1632   1.263       .  A
C1135      O1635   1.246       .  A
C1135      C1280   1.445   1_556  S
C1136      C1224   1.515       .  S
O1137     Co1157   1.993       .  S
O1137      C1145   1.274       .  A
O1138     Co1158   1.942       .  S
O1138      C1146   1.249   1_455  A
O1139     Co1159   2.038       .  S
O1139      C1657   1.279       .  A
O1140      C1148   1.302   1_545  A
O1141      C1147   1.273       .  A
O1142     Co1667   1.969   1_554  S
O1142      C1148   1.258       .  A
O1143     Co1160   1.976       .  S
O1143      C3186   1.271       .  A
O1144     Co3199   2.076       .  S
O1144      C1145   1.289       .  A
C1145      C1364   1.538       .  S
C1146      O3183   1.271       .  A
C1146      C1210   1.412       .  S
C1147      O1649   1.279       .  A
C1147      C1294   1.539       .  S
C1148      C1322   1.534       .  S
O1149      C1162   1.293       .  A
O1150     Co1668   2.140       .  S
O1150      C1163   1.309       .  A
O1151     Co1159   1.967   1_545  S
O1151      C3204   1.240   1_545  A
O1152     Co3200   2.149   1_455  S
O1152      C1165   1.311       .  A
O1153     Co1158   1.907       .  S
O1153      C1165   1.274       .  A
O1154     Co1157   1.929       .  S
O1154      C1164   1.243       .  A
O1155     Co1670   1.915       .  S
O1155      C1162   1.267       .  A
O1156      C1163   1.282       .  A
Co1157     O1652   1.969       .  S
Co1157     O2181   2.124       .  S
Co1158     O1660   2.141   1_554  S
Co1158     O1671   2.032       .  S
Co1159     O3184   2.076       .  S
Co1160     O3192   2.149       .  S
Co1160     O1665   1.915   1_554  S
Co1160     O3711   2.034       .  S
O1161     Co2177   2.124   1_455  S
O1161     Co1668   2.032       .  S
O1161     Co3710   2.035   1_455  S
C1162      C1336   1.505       .  S
C1163      C1353   1.529       .  S
C1164      O3191   1.240   1_565  A
C1164      C3236   1.414       .  S
C1165      C1311   1.524       .  S
O1166     Co1186   1.996       .  S
O1166      C1174   1.277       .  A
O1167     Co1187   1.930       .  S
O1167      C1175   1.214   1_455  A
O1168     Co1188   2.109       .  S
O1168      C1176   1.305       .  A
O1169      C1177   1.293   1_545  A
O1170      C1176   1.277   1_545  A
O1171     Co1186   2.026       .  S
O1171      C1177   1.277       .  A
O1172     Co1189   2.006       .  S
O1172      C3215   1.249       .  A
O1173     Co3228   2.051       .  S
O1173      C1174   1.286       .  A
C1174      C1479   1.520       .  S
C1175      O3212   1.249       .  A
C1175      C1199   1.428   1_655  S
C1176      C1227   1.523       .  S
C1177      C1252   1.536       .  S
O1178      C1191   1.286       .  A
O1179     Co1187   2.098       .  S
O1179      C1192   1.303       .  A
O1180     Co1188   1.947   1_545  S
O1180      C3233   1.251   1_445  A
O1181     Co3229   1.865   1_455  S
O1181      C1194   1.278       .  A
O1182     Co1187   2.190       .  S
O1182      C1194   1.328       .  A
O1183     Co1186   1.955       .  S
O1183      C1193   1.258       .  A
O1184     Co1189   2.013       .  S
O1184      C1191   1.268       .  A
O1185      C1192   1.277       .  A
Co1186     O2210   2.018       .  S
Co1187     O1190   2.023   1_455  S
Co1188     O3213   2.051   1_455  S
Co1189     O3221   1.865       .  S
Co1189     O3230   1.917       .  S
O1190     Co2206   2.018       .  S
O1190     Co3229   1.917       .  S
C1191      C1448   1.552       .  S
C1192      C1462   1.509       .  S
C1193      O3220   1.251   1_565  A
C1193      C3253   1.406   1_565  S
C1194      C1241   1.501       .  S
C1195      C1196   1.402       .  A
C1195      C1200   1.386       .  A
C1195      H1202   1.082       .  S
C1196      C3204   1.414       .  S
C1196      C2217   1.394   1_565  A
C1197      C2216   1.394       .  A
C1197      C1198   1.379       .  A
C1197      N1204   1.445       .  S
C1198      C3239   1.399       .  A
C1198      H1203   1.072       .  S
C1199      C3238   1.399       .  A
C1200      N1201   1.448   1_455  S
N1201      O1205   1.261       .  A
N1201      O1206   1.262       .  A
N1204      O1207   1.261       .  A
N1204      O1208   1.260       .  A
C1209      C1214   1.377       .  A
C1209      H1216   1.086       .  S
C1210      C3251   1.408       .  A
C1211      C3250   1.408       .  A
C1211      C1212   1.381       .  A
C1211      N1218   1.437       .  S
C1212      C2233   1.385       .  A
C1212      H1217   1.084       .  S
C1213      C3233   1.406   1_545  S
C1213      C2232   1.385       .  A
C1213      C1214   1.401   1_545  A
C1214      N1215   1.442       .  S
N1215      O1219   1.263       .  A
N1215      O1220   1.261   1_655  A
N1218      O1221   1.259       .  A
N1218      O3262   1.263       .  A
O1222      N3258   1.263       .  A
C1223      C1224   1.404       .  A
C1223      C1228   1.406       .  A
C1223      H1230   1.081       .  S
C1224      C1225   1.410       .  A
C1225      C1226   1.422       .  A
C1225      N1232   1.424       .  S
C1226      C1227   1.416       .  A
C1226      H1231   1.075   1_565  S
C1227      C1228   1.413       .  A
C1228      N1229   1.420       .  S
N1229      O1233   1.260       .  A
N1229      O1234   1.262       .  A
N1232      O1235   1.262       .  A
C1237      C1238   1.399       .  A
C1237      C1242   1.409       .  A
C1237      H1244   1.070       .  S
C1238      C1239   1.420       .  A
C1239      C1240   1.417       .  A
C1239      N1246   1.420       .  S
C1240      C1241   1.400       .  A
C1240      H1245   1.084       .  S
C1241      C1242   1.423       .  A
C1242      N1243   1.437   1_455  S
N1243      O1247   1.260       .  A
N1243      O3288   1.261       .  A
N1246      O1249   1.262       .  A
N1246      O1250   1.260       .  A
O1248      N3283   1.261       .  A
C1251      C1252   1.397       .  A
C1251      C1256   1.417       .  A
C1251      H1258   1.058       .  S
C1252      C1253   1.426       .  A
C1253      C1254   1.418       .  A
C1253      N1260   1.419       .  S
C1254      C1255   1.399       .  A
C1254      H1259   1.084       .  S
C1255      C1256   1.427       .  A
C1256      N1257   1.435       .  S
N1257      O1261   1.261       .  A
N1257      O1262   1.260       .  A
N1260      O1264   1.262       .  A
C1265      C1266   1.401       .  A
C1265      C1270   1.374       .  A
C1265      H1272   1.083       .  S
C1266      C1267   1.411       .  A
C1267      C1268   1.384       .  A
C1267      N1274   1.449       .  S
C1268      C1269   1.394       .  A
C1268      H1273   1.081       .  S
C1269      C1270   1.404       .  A
C1270      N1271   1.447       .  S
N1271      O1275   1.262       .  A
N1271      O1276   1.261       .  A
N1274      O1277   1.260       .  A
N1274      O1278   1.262       .  A
C1279      C1280   1.409       .  A
C1279      C1284   1.392       .  A
C1279      H1286   1.068       .  S
C1280      C1281   1.397       .  A
C1281      C1282   1.375       .  A
C1281      N1288   1.432       .  S
C1282      C1283   1.400       .  A
C1282      H1287   1.075       .  S
C1283      C1284   1.389       .  A
C1284      N1285   1.431       .  S
N1285      O1289   1.260       .  A
N1285      O1290   1.262       .  A
N1288      O1291   1.261       .  A
N1288      O1292   1.259       .  A
C1293      C1294   1.412       .  A
C1293      C1298   1.432       .  A
C1294      C1295   1.411       .  A
C1295      C1296   1.414       .  A
C1295      N1302   1.411       .  S
C1296      C1297   1.399       .  A
C1296      H1301   1.082       .  S
C1297      C1298   1.423       .  A
C1298      N1299   1.436       .  S
N1299      O1304   1.262       .  A
N1302      O1305   1.257       .  A
N1302      O1306   1.262   1_455  A
C1307      C1308   1.412       .  A
C1307      C1312   1.415       .  A
C1307      H1314   1.083       .  S
C1308      C1309   1.434       .  A
C1309      C1310   1.419       .  A
C1309      N1316   1.444       .  S
C1310      C1311   1.404       .  A
C1310      H1315   1.075       .  S
C1311      C1312   1.417       .  A
C1312      N1313   1.427       .  S
N1313      O1317   1.260       .  A
N1313      O1318   1.263       .  A
N1316      O1319   1.258       .  A
N1316      O1320   1.262       .  A
C1321      C1322   1.415       .  A
C1321      C1326   1.426       .  A
C1321      H1328   1.071   1_565  S
C1322      C1323   1.427       .  A
C1323      C1324   1.419       .  A
C1323      N1330   1.432       .  S
C1324      C1325   1.399       .  A
C1324      H1329   1.075       .  S
C1325      C1326   1.395       .  A
C1326      N1327   1.433       .  S
N1327      O1331   1.256       .  A
N1327      O1332   1.263       .  A
N1330      O1333   1.262       .  A
N1330      O1334   1.263       .  A
C1335      C1336   1.397       .  A
C1335      C1340   1.410       .  A
C1335      H1342   1.081       .  S
C1336      C1337   1.426       .  A
C1337      C1338   1.422       .  A
C1337      N1344   1.445       .  S
C1338      C1339   1.409       .  A
C1338      H1343   1.081       .  S
C1339      C1340   1.413       .  A
C1340      N1341   1.431       .  S
N1341      O1346   1.260       .  A
N1344      O3387   1.260       .  A
N1344      O1348   1.259       .  A
O1347      N3384   1.260       .  A
C1349      C1350   1.408       .  A
C1349      C1354   1.423       .  A
C1349      H1356   1.083       .  S
C1350      C1351   1.411       .  A
C1351      C1352   1.423       .  A
C1351      N1358   1.445       .  S
C1352      C1353   1.414       .  A
C1352      H1357   1.071       .  S
C1353      C1354   1.422       .  A
C1354      N1355   1.437       .  S
N1355      O1359   1.263       .  A
N1355      O1360   1.260       .  A
N1358      O1361   1.262       .  A
N1358      O1362   1.258       .  A
C1363      C1364   1.409       .  A
C1363      C1368   1.415       .  A
C1363      H1370   1.076       .  S
C1364      C1365   1.434       .  A
C1365      C1366   1.430       .  A
C1365      N1372   1.436       .  S
C1366      C1367   1.409       .  A
C1366      H1371   1.083       .  S
C1367      C1368   1.415       .  A
C1368      N1369   1.427       .  S
N1369      O3413   1.259       .  A
N1369      O1374   1.261       .  A
N1372      O1375   1.261       .  A
N1372      O1376   1.262       .  A
O1373      N3409   1.259       .  A
C1377      C1382   1.416   1_545  A
C1377      H1384   1.081       .  S
C1378      C1379   1.418       .  A
C1379      C1380   1.422       .  A
C1379      N1386   1.430       .  S
C1380      H1385   1.078       .  S
C1381      C1382   1.406       .  A
C1382      N1383   1.424       .  S
N1383      O1387   1.258       .  A
N1383      O1388   1.262       .  A
N1386      O1389   1.262       .  A
N1386      O1390   1.260       .  A
C1391      C1392   1.411       .  A
C1391      C3436   1.427       .  A
C1391      H1398   1.083       .  S
C1392      C3433   1.416       .  A
C1393      C3432   1.416   1_455  A
C1393      C1394   1.404       .  A
C1393      N1400   1.421       .  S
C1394      C1395   1.403       .  A
C1394      H1399   1.084       .  S
C1395      C1396   1.427       .  A
C1396      C3431   1.427   1_455  A
C1396      N1397   1.436       .  S
N1397      O3441   1.256       .  A
N1397      O1402   1.261       .  A
N1400      O1403   1.261   1_455  A
N1400      O1404   1.260       .  A
O1401      N3437   1.256       .  A
C1405      C1406   1.404       .  A
C1405      C1410   1.408       .  A
C1405      H1412   1.083       .  S
C1406      C1407   1.419       .  A
C1407      C1408   1.420       .  A
C1407      N1414   1.438       .  S
C1408      C1409   1.411       .  A
C1408      H1413   1.082       .  S
C1409      C1410   1.409       .  A
C1410      N1411   1.434       .  S
N1411      O1415   1.261       .  A
N1411      O1416   1.262       .  A
N1414      O1417   1.263       .  A
N1414      O1418   1.262       .  A
C1419      C1420   1.397       .  A
C1419      C1424   1.390       .  A
C1419      H1426   1.082       .  S
C1420      C1421   1.408       .  A
C1421      C1422   1.385       .  A
C1421      N1938   1.444       .  S
C1422      C1423   1.397       .  A
C1422      H1427   1.080       .  S
C1423      C1424   1.408       .  A
C1424      N1425   1.444       .  S
N1425      O1429   1.262       .  A
N1425      O1430   1.261       .  A
N1428      C1931   1.444       .  S
N1428      O1431   1.259   1_556  A
N1428      O1432   1.262       .  A
C1433      C1434   1.396       .  A
C1433      C1438   1.397       .  A
C1433      H1440   1.084       .  S
C1434      C1435   1.418       .  A
C1435      C1436   1.396       .  A
C1435      N1442   1.447       .  S
C1436      C1437   1.395       .  A
C1436      H1441   1.085       .  S
C1437      C1438   1.414       .  A
C1438      N1439   1.445       .  S
N1439      O1443   1.262       .  A
N1439      O1444   1.263       .  A
N1442      O1445   1.263       .  A
N1442      O1446   1.263       .  A
C1447      C1448   1.418       .  A
C1447      C1452   1.428       .  A
C1447      H1454   1.068       .  S
C1448      C1449   1.430       .  A
C1449      C1450   1.429       .  A
C1449      N1456   1.432       .  S
C1450      C1451   1.409       .  A
C1450      H1455   1.082       .  S
C1451      C1452   1.397       .  A
C1452      N1453   1.434       .  S
N1453      O1457   1.258       .  A
N1453      O1458   1.259       .  A
N1456      O1459   1.262       .  A
N1456      O1460   1.261       .  A
C1461      C1462   1.406       .  A
C1461      C1466   1.412       .  A
C1461      H1468   1.075       .  S
C1462      C1463   1.418       .  A
C1463      C1464   1.422       .  A
C1463      N1470   1.435       .  S
C1464      C1465   1.413       .  A
C1464      H1469   1.080       .  S
C1465      C1466   1.415       .  A
C1466      N1467   1.429       .  S
N1467      O1472   1.262       .  A
N1470      O1473   1.262       .  A
N1470      O1474   1.261       .  A
C1475      C1476   1.393       .  A
C1475      C1480   1.417       .  A
C1475      H1482   1.083       .  S
C1476      C1477   1.431       .  A
C1477      C1478   1.416       .  A
C1477      N1484   1.436       .  S
C1478      C1479   1.399       .  A
C1478      H1483   1.076       .  S
C1479      C1480   1.426       .  A
C1480      N1481   1.425       .  S
N1481      O1485   1.260       .  A
N1481      O1486   1.262       .  A
N1484      O1487   1.263       .  A
N1484      O1488   1.262       .  A
C1489      C1490   1.404       .  A
C1489      H1496   1.083       .  S
C1490      C1491   1.424       .  A
C1491      N1498   1.428       .  S
C1492      C1493   1.399       .  A
C1492      H1497   1.083       .  S
C1493      C1494   1.417       .  A
C1494      N1495   1.433       .  S
N1495      O1499   1.257       .  A
N1495      O1500   1.263       .  A
N1498      O1502   1.263       .  A
C1503      C1504   1.410   1_556  A
C1503      C3548   1.416       .  A
C1503      H1510   1.080   1_556  S
C1504      C1505   1.433       .  A
C1505      C4056   1.423   1_554  A
C1505      N2022   1.445       .  S
C1506      C4055   1.422   1_455  A
C1506      C1507   1.407       .  A
C1506      H1511   1.074       .  S
C1507      C2018   1.411       .  A
C1508      C3543   1.416   1_455  A
C1508      C2017   1.411       .  A
C1508      N1509   1.443       .  S
N1509      O1513   1.255       .  A
N1509      O2024   1.262       .  A
N1512      C2015   1.445       .  S
N1512      O1515   1.256       .  A
N1512      O2026   1.261       .  A
O1514      N2019   1.262       .  A
O1516      N2022   1.261       .  A
C1517      C1518   1.384       .  A
C1517      C1522   1.410       .  A
C1517      H1524   1.079       .  S
C1518      C2029   1.421   1_554  A
C1519      C2028   1.421       .  A
C1519      C1520   1.415       .  A
C1519      N1526   1.431       .  S
C1520      C1521   1.404       .  A
C1520      H1525   1.083       .  S
C1521      C2032   1.427       .  A
C1522      C2031   1.427   1_554  A
C1522      N1523   1.425       .  S
N1523      O1527   1.262       .  A
N1523      O2038   1.260       .  A
N1526      O1529   1.261       .  A
N1526      O1530   1.263       .  A
O1528      N2033   1.260       .  A
O1531     Co1551   1.970       .  S
O1532     Co1552   1.930       .  S
O1532      C1540   1.270       .  A
O1533     Co1553   1.920       .  S
O1533      C1541   1.282       .  A
O1534     Co1554   1.930       .  S
O1534      C1542   1.276       .  A
O1535     Co1552   2.125       .  S
O1535      C1541   1.309       .  A
O1536     Co1551   2.073       .  S
O1536      C1542   1.291       .  A
O1537     Co1554   2.122       .  S
O1537      C1540   1.306       .  A
O1538     Co1553   1.973       .  S
C1539      C1930   1.433   1_554  S
C1540      C1961   1.518       .  S
C1541      C2014   1.527       .  S
C1542      C2003   1.508       .  S
O1543     Co1551   2.004       .  S
O1543      C1556   1.269       .  A
O1544     Co1552   1.951       .  S
O1544      C1557   1.249       .  A
O1545     Co1553   2.043       .  S
O1545      C1558   1.281       .  A
O1546     Co1554   2.036       .  S
O1546      C1559   1.286       .  A
O1547     Co1552   1.935       .  S
O1547      C1559   1.247       .  A
O1548     Co1551   1.990       .  S
O1548      C1558   1.275       .  A
O1549     Co1554   2.067       .  S
O1549      C1556   1.293       .  A
O1550     Co1553   2.039       .  S
O1550      C1557   1.274       .  A
Co1551     O1555   2.141       .  S
Co1552     O1555   2.051       .  S
Co1553     O1555   1.866       .  S
Co1554     O1555   1.989       .  S
C1556      C1975   1.518       .  S
C1557      C1986   1.513       .  S
C1558      C2028   1.504       .  S
C1559      C1944   1.442       .  S
O1560     Co1580   1.925       .  S
O1560      C1568   1.251       .  A
O1561     Co1581   1.990       .  S
O1561      C1569   1.256       .  A
O1562     Co1582   2.170       .  S
O1562      C1570   1.315       .  A
O1563     Co1583   2.009       .  S
O1563      C1571   1.281       .  A
O1564     Co1581   1.908       .  S
O1564      C1570   1.268       .  A
O1565     Co1580   2.037       .  S
O1565      C1571   1.287       .  A
O1566     Co1583   1.984       .  S
O1566      C1569   1.264       .  A
O1567     Co1582   2.033       .  S
O1567      C1568   1.293       .  A
C1568      C1947   1.437       .  S
C1569      C1849   1.512       .  S
C1570      C1902   1.520       .  S
C1571      C1888   1.527       .  S
O1572     Co1580   2.018       .  S
O1572      C1585   1.271       .  A
O1573     Co1581   2.129       .  S
O1573      C1586   1.309       .  A
O1574     Co1582   2.124       .  S
O1574      C1587   1.307       .  A
O1575     Co1583   1.961       .  S
O1575      C1588   1.276       .  A
O1576     Co1581   2.015       .  S
O1576      C1588   1.298       .  A
O1577     Co1580   1.891       .  S
O1577      C1587   1.278       .  A
O1578     Co1583   1.997       .  S
O1578      C1585   1.264       .  A
O1579     Co1582   1.970       .  S
O1579      C1586   1.277       .  A
Co1580     O1584   1.870       .  S
Co1581     O1584   1.973       .  S
Co1582     O1584   2.050       .  S
Co1583     O1584   1.995       .  S
C1585      C1860   1.502       .  S
C1586      C1877   1.527       .  S
C1587      C1916   1.502       .  S
C1588      C1933   1.433       .  S
O1589     Co1609   1.999       .  S
O1589      C1597   1.281       .  A
O1590     Co1610   1.913       .  S
O1590      C1598   1.243       .  A
O1591     Co1611   2.023       .  S
O1591      C1599   1.271       .  A
O1592     Co1612   2.074       .  S
O1592      C1600   1.293       .  A
O1593     Co1610   1.998       .  S
O1593      C1599   1.262       .  A
O1594     Co1609   1.974       .  S
O1594      C1600   1.261       .  A
O1595     Co1612   2.026       .  S
O1595      C1598   1.276       .  A
O1596     Co1611   2.016       .  S
O1596      C1597   1.278       .  A
C1597      C1919   1.497       .  S
C1598      C1793   1.446       .  S
C1599      C1818   1.523       .  S
C1600      C1835   1.499       .  S
O1601     Co1609   2.129       .  S
O1601      C1614   1.305       .  A
O1602     Co1610   2.103       .  S
O1602      C1615   1.303       .  A
O1603     Co1611   1.980       .  S
O1603      C1616   1.248       .  A
O1604     Co1612   2.135       .  S
O1604      C1617   1.304       .  A
O1605     Co1610   1.932       .  S
O1605      C1617   1.276       .  A
O1606     Co1609   1.906       .  S
O1606      C1616   1.241       .  A
O1607     Co1612   1.900       .  S
O1607      C1614   1.266       .  A
O1608     Co1611   1.922       .  S
O1608      C1615   1.281       .  A
Co1609     O1613   2.109       .  S
Co1610     O1613   1.999       .  S
Co1611     O1613   1.885       .  S
Co1612     O1613   2.013       .  S
C1614      C1891   1.523       .  S
C1615      C1905   1.515       .  S
C1616      C1776   1.423       .  S
C1617      C1807   1.526       .  S
O1618     Co1638   2.016       .  S
O1618      C1626   1.265       .  A
O1619     Co1639   1.914       .  S
O1619      C1627   1.240       .  A
O1620     Co1640   2.017       .  S
O1620      C1628   1.273       .  A
O1621     Co1641   2.003       .  S
O1621      C1629   1.256       .  A
O1622     Co1639   2.045       .  S
O1622      C1628   1.283       .  A
O1623     Co1638   2.011       .  S
O1623      C1629   1.261       .  A
O1624     Co1641   1.931       .  S
O1624      C1627   1.240       .  A
O1625     Co1640   1.989       .  S
O1625      C1626   1.267       .  A
C1626      C2031   1.514       .  S
C1627      C1779   1.401       .  S
C1628      C1748   1.515       .  S
C1629      C1765   1.521       .  S
O1630     Co1638   1.919       .  S
O1630      C1643   1.271       .  A
O1631     Co1639   1.982       .  S
O1631      C1644   1.258       .  A
O1632     Co1640   1.995       .  S
O1633     Co1641   2.064       .  S
O1633      C1646   1.308       .  A
O1634     Co1639   1.893       .  S
O1634      C1646   1.273       .  A
O1635     Co1638   1.965       .  S
O1636     Co1641   2.130       .  S
O1636      C1643   1.310       .  A
O1637     Co1640   2.023       .  S
O1637      C1644   1.266       .  A
Co1638     O1642   1.885       .  S
Co1639     O1642   1.923       .  S
Co1640     O1642   2.110       .  S
Co1641     O1642   2.299       .  S
C1643      C2000   1.523       .  S
C1644      C2017   1.516       .  S
C1645      C1790   1.445       .  S
C1646      C1734   1.515       .  S
O1647     Co1667   1.993       .  S
O1647      C1655   1.274       .  A
O1648     Co1668   1.942       .  S
O1648      C1656   1.249   1_455  A
O1649     Co1669   2.038   1_554  S
O1650      C1658   1.302   1_545  A
O1651      C1657   1.273       .  A
O1652      C1658   1.258       .  A
O1653     Co1670   1.976       .  S
O1653      C3696   1.271       .  A
O1654     Co3709   2.076       .  S
O1654      C1655   1.289       .  A
C1655      C1874   1.538       .  S
C1656      O3693   1.271       .  A
C1656      C1720   1.412       .  S
C1657      C1804   1.539       .  S
C1658      C1832   1.534       .  S
O1659      C1672   1.293       .  A
O1660      C1673   1.309       .  A
O1661     Co1669   1.967   1_545  S
O1661      C3714   1.240   1_545  A
O1662     Co3710   2.149   1_455  S
O1662      C1675   1.311       .  A
O1663     Co1668   1.907       .  S
O1663      C1675   1.274       .  A
O1664     Co1667   1.929       .  S
O1664      C1674   1.243       .  A
O1665      C1672   1.267       .  A
O1666      C1673   1.282       .  A
Co1667     O2691   2.124   1_556  S
Co1669     O3694   2.076       .  S
Co1670     O3702   2.149       .  S
Co1670     O3201   2.034       .  S
O1671     Co2687   2.124   1_454  S
O1671     Co3200   2.034   1_455  S
C1672      C1846   1.505       .  S
C1673      C1863   1.529       .  S
C1674      O3701   1.240   1_565  A
C1674      C3746   1.414       .  S
C1675      C1821   1.524       .  S
O1676     Co1696   1.995       .  S
O1676      C1684   1.277       .  A
O1677     Co1697   1.930       .  S
O1677      C1685   1.214   1_455  A
O1678     Co1698   2.109       .  S
O1678      C1686   1.305       .  A
O1679      C1687   1.293   1_545  A
O1680      C1686   1.277   1_545  A
O1681     Co1696   2.026       .  S
O1681      C1687   1.277       .  A
O1682     Co1699   2.006       .  S
O1682      C3725   1.249       .  A
O1683     Co3738   2.051       .  S
O1683      C1684   1.286       .  A
C1684      C1989   1.520       .  S
C1685      O3722   1.249       .  A
C1685      C1709   1.428   1_655  S
C1686      C1737   1.523       .  S
C1687      C1762   1.536       .  S
O1688      C1701   1.286       .  A
O1689     Co1697   2.098       .  S
O1689      C1702   1.303       .  A
O1690     Co1698   1.947   1_545  S
O1690      C3743   1.251   1_445  A
O1691     Co3739   1.865   1_455  S
O1691      C1704   1.278       .  A
O1692     Co1697   2.190       .  S
O1692      C1704   1.328       .  A
O1693     Co1696   1.955       .  S
O1693      C1703   1.258       .  A
O1694     Co1699   2.013       .  S
O1694      C1701   1.268       .  A
O1695      C1702   1.277       .  A
Co1696     O2720   2.018       .  S
Co1697     O1700   2.023   1_455  S
Co1698     O3723   2.051   1_455  S
Co1699     O3731   1.865       .  S
Co1699     O3740   1.917       .  S
O1700     Co2716   2.018       .  S
O1700     Co3739   1.917       .  S
C1701      C1958   1.552       .  S
C1702      C1972   1.509       .  S
C1703      O3730   1.251   1_565  A
C1703      C3763   1.406   1_565  S
C1704      C1751   1.501       .  S
C1705      C1706   1.402       .  A
C1705      C1710   1.386       .  A
C1705      H1712   1.082       .  S
C1706      C3714   1.414       .  S
C1706      C2727   1.394   1_565  A
C1707      C2726   1.394       .  A
C1707      C1708   1.379       .  A
C1707      N1714   1.445       .  S
C1708      C3749   1.399       .  A
C1708      H1713   1.072       .  S
C1709      C3748   1.399       .  A
C1710      N1711   1.448   1_455  S
N1711      O1715   1.261       .  A
N1711      O1716   1.262       .  A
N1714      O1717   1.261       .  A
N1714      O1718   1.260       .  A
C1719      C1724   1.377       .  A
C1719      H1726   1.086       .  S
C1720      C3761   1.408       .  A
C1721      C3760   1.408       .  A
C1721      C1722   1.381       .  A
C1721      N1728   1.437       .  S
C1722      C2743   1.385       .  A
C1722      H1727   1.084       .  S
C1723      C3743   1.406   1_545  S
C1723      C2742   1.385       .  A
C1723      C1724   1.401   1_545  A
C1724      N1725   1.442       .  S
N1725      O1729   1.263       .  A
N1725      O1730   1.261   1_655  A
N1728      O1731   1.259       .  A
N1728      O3772   1.263       .  A
O1732      N3768   1.263       .  A
C1733      C1734   1.404       .  A
C1733      C1738   1.406       .  A
C1733      H1740   1.081       .  S
C1734      C1735   1.410       .  A
C1735      C1736   1.422       .  A
C1735      N1742   1.424       .  S
C1736      C1737   1.416       .  A
C1736      H1741   1.075   1_565  S
C1737      C1738   1.413       .  A
C1738      N1739   1.420       .  S
N1739      O1743   1.260       .  A
N1739      O1744   1.262       .  A
N1742      O1745   1.262       .  A
C1747      C1748   1.399       .  A
C1747      C1752   1.409       .  A
C1747      H1754   1.070       .  S
C1748      C1749   1.420       .  A
C1749      C1750   1.417       .  A
C1749      N1756   1.420       .  S
C1750      C1751   1.400       .  A
C1750      H1755   1.084       .  S
C1751      C1752   1.423       .  A
C1752      N1753   1.437   1_455  S
N1753      O1757   1.260       .  A
N1753      O3798   1.261       .  A
N1756      O1759   1.262       .  A
N1756      O1760   1.260       .  A
O1758      N3793   1.261       .  A
C1761      C1762   1.397       .  A
C1761      C1766   1.417       .  A
C1761      H1768   1.057       .  S
C1762      C1763   1.426       .  A
C1763      C1764   1.418       .  A
C1763      N1770   1.419       .  S
C1764      C1765   1.400       .  A
C1764      H1769   1.084       .  S
C1765      C1766   1.427       .  A
C1766      N1767   1.435       .  S
N1767      O1771   1.261       .  A
N1767      O1772   1.260       .  A
N1770      O1774   1.262       .  A
C1775      C1776   1.401       .  A
C1775      C1780   1.374       .  A
C1775      H1782   1.083       .  S
C1776      C1777   1.411       .  A
C1777      C1778   1.384       .  A
C1777      N1784   1.449       .  S
C1778      C1779   1.394       .  A
C1778      H1783   1.081       .  S
C1779      C1780   1.404       .  A
C1780      N1781   1.447       .  S
N1781      O1785   1.262       .  A
N1781      O1786   1.261       .  A
N1784      O1787   1.260       .  A
N1784      O1788   1.262       .  A
C1789      C1790   1.409       .  A
C1789      C1794   1.392       .  A
C1789      H1796   1.068       .  S
C1790      C1791   1.397       .  A
C1791      C1792   1.375       .  A
C1791      N1798   1.432       .  S
C1792      C1793   1.400       .  A
C1792      H1797   1.075       .  S
C1793      C1794   1.389       .  A
C1794      N1795   1.431       .  S
N1795      O1799   1.260       .  A
N1795      O1800   1.262       .  A
N1798      O1801   1.261       .  A
N1798      O1802   1.259       .  A
C1803      C1804   1.412       .  A
C1803      C1808   1.432       .  A
C1804      C1805   1.410       .  A
C1805      C1806   1.413       .  A
C1805      N1812   1.411       .  S
C1806      C1807   1.399       .  A
C1806      H1811   1.082       .  S
C1807      C1808   1.423       .  A
C1808      N1809   1.436       .  S
N1809      O1814   1.262       .  A
N1812      O1815   1.257       .  A
N1812      O1816   1.262   1_455  A
C1817      C1818   1.412       .  A
C1817      C1822   1.415       .  A
C1817      H1824   1.083       .  S
C1818      C1819   1.434       .  A
C1819      C1820   1.419       .  A
C1819      N1826   1.444       .  S
C1820      C1821   1.404       .  A
C1820      H1825   1.075       .  S
C1821      C1822   1.417       .  A
C1822      N1823   1.427       .  S
N1823      O1827   1.260       .  A
N1823      O1828   1.263       .  A
N1826      O1829   1.258       .  A
N1826      O1830   1.262       .  A
C1831      C1832   1.415       .  A
C1831      C1836   1.426       .  A
C1831      H1838   1.071   1_565  S
C1832      C1833   1.427       .  A
C1833      C1834   1.419       .  A
C1833      N1840   1.432       .  S
C1834      C1835   1.399       .  A
C1834      H1839   1.075       .  S
C1835      C1836   1.395       .  A
C1836      N1837   1.433       .  S
N1837      O1841   1.256       .  A
N1837      O1842   1.263       .  A
N1840      O1843   1.262       .  A
N1840      O1844   1.263       .  A
C1845      C1846   1.397       .  A
C1845      C1850   1.410       .  A
C1845      H1852   1.081       .  S
C1846      C1847   1.426       .  A
C1847      C1848   1.422       .  A
C1847      N1854   1.445       .  S
C1848      C1849   1.409       .  A
C1848      H1853   1.081       .  S
C1849      C1850   1.413       .  A
C1850      N1851   1.431       .  S
N1851      O1856   1.260       .  A
N1854      O3897   1.260       .  A
N1854      O1858   1.259       .  A
O1857      N3894   1.260       .  A
C1859      C1860   1.408       .  A
C1859      C1864   1.423       .  A
C1859      H1866   1.083       .  S
C1860      C1861   1.411       .  A
C1861      C1862   1.423       .  A
C1861      N1868   1.445       .  S
C1862      C1863   1.414       .  A
C1862      H1867   1.071       .  S
C1863      C1864   1.422       .  A
C1864      N1865   1.437       .  S
N1865      O1869   1.263       .  A
N1865      O1870   1.260       .  A
N1868      O1871   1.262       .  A
N1868      O1872   1.258       .  A
C1873      C1874   1.409       .  A
C1873      C1878   1.415       .  A
C1873      H1880   1.076       .  S
C1874      C1875   1.434       .  A
C1875      C1876   1.430       .  A
C1875      N1882   1.436       .  S
C1876      C1877   1.409       .  A
C1876      H1881   1.083       .  S
C1877      C1878   1.415       .  A
C1878      N1879   1.427       .  S
N1879      O3923   1.259       .  A
N1879      O1884   1.261       .  A
N1882      O1885   1.261       .  A
N1882      O1886   1.262       .  A
O1883      N3919   1.259       .  A
C1887      C1892   1.416   1_545  A
C1887      H1894   1.081       .  S
C1888      C1889   1.418       .  A
C1889      C1890   1.422       .  A
C1889      N1896   1.430       .  S
C1890      H1895   1.078       .  S
C1891      C1892   1.406       .  A
C1892      N1893   1.424       .  S
N1893      O1897   1.258       .  A
N1893      O1898   1.262       .  A
N1896      O1899   1.262       .  A
N1896      O1900   1.260       .  A
C1901      C1902   1.411       .  A
C1901      C3946   1.427       .  A
C1901      H1908   1.083       .  S
C1902      C3943   1.416       .  A
C1903      C3942   1.416   1_455  A
C1903      C1904   1.404       .  A
C1903      N1910   1.421       .  S
C1904      C1905   1.403       .  A
C1904      H1909   1.084       .  S
C1905      C1906   1.427       .  A
C1906      C3941   1.427   1_455  A
C1906      N1907   1.436       .  S
N1907      O3951   1.256       .  A
N1907      O1912   1.261       .  A
N1910      O1913   1.261   1_455  A
N1910      O1914   1.260       .  A
O1911      N3947   1.256       .  A
C1915      C1916   1.404       .  A
C1915      C1920   1.408       .  A
C1915      H1922   1.083       .  S
C1916      C1917   1.419       .  A
C1917      C1918   1.420       .  A
C1917      N1924   1.438       .  S
C1918      C1919   1.411       .  A
C1918      H1923   1.082       .  S
C1919      C1920   1.409       .  A
C1920      N1921   1.434       .  S
N1921      O1925   1.261       .  A
N1921      O1926   1.262       .  A
N1924      O1927   1.263       .  A
N1924      O1928   1.262       .  A
C1929      C1930   1.397       .  A
C1929      C1934   1.390       .  A
C1929      H1936   1.082       .  S
C1930      C1931   1.408       .  A
C1931      C1932   1.385       .  A
C1932      C1933   1.397       .  A
C1932      H1937   1.080       .  S
C1933      C1934   1.408       .  A
C1934      N1935   1.444       .  S
N1935      O1939   1.262       .  A
N1935      O1940   1.261       .  A
N1938      O1941   1.259       .  A
N1938      O1942   1.262       .  A
C1943      C1944   1.396       .  A
C1943      C1948   1.397       .  A
C1943      H1950   1.084       .  S
C1944      C1945   1.418       .  A
C1945      C1946   1.396       .  A
C1945      N1952   1.447       .  S
C1946      C1947   1.395       .  A
C1946      H1951   1.085       .  S
C1947      C1948   1.414       .  A
C1948      N1949   1.445       .  S
N1949      O1953   1.262       .  A
N1949      O1954   1.263       .  A
N1952      O1955   1.263       .  A
N1952      O1956   1.263       .  A
C1957      C1958   1.418       .  A
C1957      C1962   1.428       .  A
C1957      H1964   1.068       .  S
C1958      C1959   1.430       .  A
C1959      C1960   1.429       .  A
C1959      N1966   1.432       .  S
C1960      C1961   1.409       .  A
C1960      H1965   1.082       .  S
C1961      C1962   1.397       .  A
C1962      N1963   1.434       .  S
N1963      O1967   1.258       .  A
N1963      O1968   1.259       .  A
N1966      O1969   1.262       .  A
N1966      O1970   1.261       .  A
C1971      C1972   1.406       .  A
C1971      C1976   1.412       .  A
C1971      H1978   1.075       .  S
C1972      C1973   1.418       .  A
C1973      C1974   1.422       .  A
C1973      N1980   1.435       .  S
C1974      C1975   1.413       .  A
C1974      H1979   1.080       .  S
C1975      C1976   1.415       .  A
C1976      N1977   1.429       .  S
N1977      O1982   1.262       .  A
N1980      O1983   1.262       .  A
N1980      O1984   1.261       .  A
C1985      C1986   1.393       .  A
C1985      C1990   1.417       .  A
C1985      H1992   1.083       .  S
C1986      C1987   1.431       .  A
C1987      C1988   1.416       .  A
C1987      N1994   1.436       .  S
C1988      C1989   1.399       .  A
C1988      H1993   1.076       .  S
C1989      C1990   1.426       .  A
C1990      N1991   1.425       .  S
N1991      O1995   1.260       .  A
N1991      O1996   1.262       .  A
N1994      O1997   1.263       .  A
N1994      O1998   1.262       .  A
C1999      C2000   1.404       .  A
C1999      H2006   1.083       .  S
C2000      C2001   1.424       .  A
C2001      N2008   1.428       .  S
C2002      C2003   1.399       .  A
C2002      H2007   1.083       .  S
C2003      C2004   1.417       .  A
C2004      N2005   1.433       .  S
N2005      O2009   1.257       .  A
N2005      O2010   1.263       .  A
N2008      O2012   1.263       .  A
C2013      C2014   1.409       .  A
C2013      C4058   1.416       .  A
C2013      H2020   1.080       .  S
C2014      C2015   1.433       .  A
C2015      C3546   1.423       .  A
C2016      C3545   1.422   1_456  A
C2016      C2017   1.407       .  A
C2016      H2021   1.074       .  S
C2018      C4053   1.416   1_455  A
C2018      N2019   1.443       .  S
N2019      O2023   1.255       .  A
N2022      O2025   1.256       .  A
C2027      C2028   1.384       .  A
C2027      C2032   1.410       .  A
C2027      H2034   1.079       .  S
C2029      C2030   1.415       .  A
C2029      N2036   1.431       .  S
C2030      C2031   1.404       .  A
C2030      H2035   1.083       .  S
C2032      N2033   1.425       .  S
N2033      O2037   1.262       .  A
N2036      O2039   1.261   1_556  A
N2036      O2040   1.263       .  A
O2041     Co2061   1.970       .  S
O2041      C2559   1.245       .  A
O2042     Co2062   1.931       .  S
O2042      C2050   1.270       .  A
O2043     Co2063   1.920       .  S
O2043      C2051   1.281       .  A
O2044     Co2064   1.930       .  S
O2044      C2052   1.276       .  A
O2045     Co2062   2.125       .  S
O2045      C2051   1.309       .  A
O2046     Co2061   2.073       .  S
O2046      C2052   1.291       .  A
O2047     Co2064   2.122       .  S
O2047      C2050   1.306       .  A
O2048     Co2063   1.973       .  S
O2048      C2559   1.235       .  A
C2049      O2551   1.245       .  A
C2049      O2558   1.235       .  A
C2049      C2440   1.433       .  S
C2050      C2471   1.518       .  S
C2051      C2524   1.527       .  S
C2052      C2513   1.508       .  S
O2053     Co2061   2.004       .  S
O2053      C2066   1.269       .  A
O2054     Co2062   1.951       .  S
O2054      C2067   1.249       .  A
O2055     Co2063   2.043       .  S
O2055      C2068   1.281       .  A
O2056     Co2064   2.036       .  S
O2056      C2069   1.286       .  A
O2057     Co2062   1.935       .  S
O2057      C2069   1.247       .  A
O2058     Co2061   1.990       .  S
O2058      C2068   1.275       .  A
O2059     Co2064   2.067       .  S
O2059      C2066   1.293       .  A
O2060     Co2063   2.039       .  S
O2060      C2067   1.274       .  A
Co2061     O2065   2.141       .  S
Co2062     O2065   2.051       .  S
Co2063     O2065   1.866       .  S
Co2064     O2065   1.989       .  S
C2066      C2485   1.518       .  S
C2067      C2496   1.513       .  S
C2068      C2538   1.504       .  S
C2069      C2454   1.442       .  S
O2070     Co2090   1.925       .  S
O2070      C2078   1.251       .  A
O2071     Co2091   1.990       .  S
O2071      C2079   1.256       .  A
O2072     Co2092   2.170       .  S
O2072      C2080   1.315       .  A
O2073     Co2093   2.009       .  S
O2073      C2081   1.281       .  A
O2074     Co2091   1.908       .  S
O2074      C2080   1.268       .  A
O2075     Co2090   2.037       .  S
O2075      C2081   1.287       .  A
O2076     Co2093   1.984       .  S
O2076      C2079   1.264       .  A
O2077     Co2092   2.033       .  S
O2077      C2078   1.293       .  A
C2078      C2457   1.437       .  S
C2079      C2359   1.512       .  S
C2080      C2412   1.520       .  S
C2081      C2398   1.527       .  S
O2082     Co2090   2.018       .  S
O2082      C2095   1.271       .  A
O2083     Co2091   2.129       .  S
O2083      C2096   1.309       .  A
O2084     Co2092   2.124       .  S
O2084      C2097   1.307       .  A
O2085     Co2093   1.961       .  S
O2085      C2098   1.276       .  A
O2086     Co2091   2.015       .  S
O2086      C2098   1.298       .  A
O2087     Co2090   1.891       .  S
O2087      C2097   1.278       .  A
O2088     Co2093   1.997       .  S
O2088      C2095   1.264       .  A
O2089     Co2092   1.970       .  S
O2089      C2096   1.277       .  A
Co2090     O2094   1.870       .  S
Co2091     O2094   1.973       .  S
Co2092     O2094   2.050       .  S
Co2093     O2094   1.995       .  S
C2095      C2370   1.502       .  S
C2096      C2387   1.527       .  S
C2097      C2426   1.502       .  S
C2098      C2443   1.433       .  S
O2099     Co2119   1.999       .  S
O2099      C2107   1.281       .  A
O2100     Co2120   1.913       .  S
O2100      C2108   1.243       .  A
O2101     Co2121   2.023       .  S
O2101      C2109   1.271       .  A
O2102     Co2122   2.074       .  S
O2102      C2110   1.293       .  A
O2103     Co2120   1.997       .  S
O2103      C2109   1.262       .  A
O2104     Co2119   1.974       .  S
O2104      C2110   1.261       .  A
O2105     Co2122   2.026       .  S
O2105      C2108   1.276       .  A
O2106     Co2121   2.016       .  S
O2106      C2107   1.278       .  A
C2107      C2429   1.497       .  S
C2108      C2303   1.446       .  S
C2109      C2328   1.523       .  S
C2110      C2345   1.499       .  S
O2111     Co2119   2.129       .  S
O2111      C2124   1.305       .  A
O2112     Co2120   2.103       .  S
O2112      C2125   1.303       .  A
O2113     Co2121   1.980       .  S
O2113      C2126   1.248       .  A
O2114     Co2122   2.135       .  S
O2114      C2127   1.304       .  A
O2115     Co2120   1.932       .  S
O2115      C2127   1.276       .  A
O2116     Co2119   1.906       .  S
O2116      C2126   1.241       .  A
O2117     Co2122   1.900       .  S
O2117      C2124   1.266       .  A
O2118     Co2121   1.922       .  S
O2118      C2125   1.281       .  A
Co2119     O2123   2.109       .  S
Co2120     O2123   1.999       .  S
Co2121     O2123   1.885       .  S
Co2122     O2123   2.013       .  S
C2124      C2401   1.523       .  S
C2125      C2415   1.515       .  S
C2126      C2286   1.423       .  S
C2127      C2317   1.526       .  S
O2128     Co2148   2.016       .  S
O2128      C2136   1.265       .  A
O2129     Co2149   1.914       .  S
O2129      C2137   1.240       .  A
O2130     Co2150   2.017       .  S
O2130      C2138   1.273       .  A
O2131     Co2151   2.003       .  S
O2131      C2139   1.256       .  A
O2132     Co2149   2.045       .  S
O2132      C2138   1.283       .  A
O2133     Co2148   2.011       .  S
O2133      C2139   1.261       .  A
O2134     Co2151   1.931       .  S
O2134      C2137   1.240       .  A
O2135     Co2150   1.989       .  S
O2135      C2136   1.267       .  A
C2136      C2541   1.514       .  S
C2137      C2289   1.401       .  S
C2138      C2258   1.515       .  S
C2139      C2275   1.521       .  S
O2140     Co2148   1.919       .  S
O2140      C2153   1.271       .  A
O2141     Co2149   1.982       .  S
O2141      C2154   1.258       .  A
O2142     Co2150   1.995       .  S
O2142      C2665   1.263       .  A
O2143     Co2151   2.064       .  S
O2143      C2156   1.308       .  A
O2144     Co2149   1.893       .  S
O2144      C2156   1.273       .  A
O2145     Co2148   1.965       .  S
O2145      C2665   1.246       .  A
O2146     Co2151   2.130       .  S
O2146      C2153   1.310       .  A
O2147     Co2150   2.023       .  S
O2147      C2154   1.266       .  A
Co2148     O2152   1.885       .  S
Co2149     O2152   1.923       .  S
Co2150     O2152   2.110       .  S
Co2151     O2152   2.299       .  S
C2153      C2510   1.523       .  S
C2154      C2527   1.516       .  S
C2155      O2652   1.263       .  A
C2155      O2655   1.246       .  A
C2155      C2300   1.445   1_556  S
C2156      C2244   1.515       .  S
O2157     Co2177   1.993       .  S
O2157      C2165   1.274       .  A
O2158     Co2178   1.942       .  S
O2158      C2166   1.249       .  A
O2159     Co2179   2.038       .  S
O2159      C2677   1.279       .  A
O2160     Co3200   2.133       .  S
O2160      C2168   1.302       .  A
O2161     Co3198   2.011       .  S
O2161      C2167   1.273       .  A
O2162     Co2687   1.969   1_554  S
O2162      C2168   1.258       .  A
O2163     Co2180   1.976       .  S
O2164      C2165   1.289   1_455  A
C2165      C2384   1.538       .  S
C2166      C2230   1.412       .  S
C2167      O2669   1.279       .  A
C2167      C2314   1.539       .  S
C2168      C2342   1.534       .  S
O2169     Co3197   2.072   1_545  S
O2169      C2182   1.293       .  A
O2170     Co2688   2.141       .  S
O2170      C2183   1.309       .  A
O2171     Co2179   1.967       .  S
O2172      C2185   1.311       .  A
O2173     Co2178   1.907       .  S
O2173      C2185   1.274       .  A
O2174     Co2177   1.929       .  S
O2174      C2184   1.243   1_655  A
O2175     Co2690   1.915       .  S
O2175      C2182   1.267       .  A
O2176     Co3199   1.942       .  S
O2176      C2183   1.282   1_565  A
Co2177     O2672   1.970       .  S
Co2177     O3189   2.072       .  S
Co2178     O3181   2.011   1_545  S
Co2178     O2680   2.140   1_554  S
Co2178     O2691   2.032   1_545  S
Co2179     O3196   1.942       .  S
Co2179     O3201   1.911       .  S
Co2180     O3180   2.133       .  S
Co2180     O2685   1.915   1_554  S
O2181     Co2688   2.032   1_565  S
O2181     Co3199   1.910       .  S
C2182      C2356   1.505       .  S
C2183      C2373   1.529       .  S
C2185      C2331   1.524       .  S
O2186     Co2206   1.995       .  S
O2186      C2194   1.277       .  A
O2187     Co2207   1.930   1_565  S
O2187      C2195   1.214       .  A
O2188     Co2208   2.109       .  S
O2188      C2196   1.305       .  A
O2189     Co3229   2.063       .  S
O2189      C2197   1.293       .  A
O2190     Co3227   1.948       .  S
O2190      C2196   1.277       .  A
O2191     Co2206   2.026       .  S
O2191      C2197   1.277       .  A
O2192     Co2209   2.006       .  S
O2193      C2194   1.286       .  A
C2194      C2499   1.520       .  S
C2195      C2219   1.428       .  S
C2196      C2247   1.523       .  S
C2197      C2272   1.536       .  S
O2198     Co3226   2.069   1_545  S
O2198      C2211   1.286       .  A
O2199     Co2207   2.098       .  S
O2199      C2212   1.303       .  A
O2200     Co2208   1.947       .  S
O2201      C2214   1.278       .  A
O2202     Co2207   2.190       .  S
O2202      C2214   1.328       .  A
O2203     Co2206   1.955       .  S
O2203      C2213   1.258       .  A
O2204     Co2209   2.013       .  S
O2204      C2211   1.268       .  A
O2205     Co3228   1.932       .  S
O2205      C2212   1.277   1_565  A
Co2206     O3218   2.069       .  S
Co2207     O3210   1.948       .  S
Co2207     O2210   2.023   1_545  S
Co2208     O3225   1.932       .  S
Co2208     O3230   2.000       .  S
Co2209     O3209   2.063       .  S
O2210     Co3228   2.000       .  S
C2211      C2468   1.552       .  S
C2212      C2482   1.509       .  S
C2214      C2261   1.501       .  S
C2215      C2216   1.402       .  A
C2215      C2220   1.386       .  A
C2215      H2222   1.082       .  S
C2217      C2218   1.379       .  A
C2217      N2224   1.445       .  S
C2218      H2223   1.072       .  S
C2219      C3240   1.409       .  A
C2220      C3239   1.409       .  A
C2220      N2221   1.448       .  S
N2221      O2225   1.261       .  A
N2221      O2226   1.262       .  A
N2224      O2227   1.261       .  A
N2224      O2228   1.260       .  A
C2229      C3250   1.394       .  A
C2229      C2234   1.377       .  A
C2229      H2236   1.086       .  S
C2230      C3249   1.394   1_545  A
C2231      C2232   1.381       .  A
C2231      N2238   1.437   1_655  S
C2232      H2237   1.084   1_655  S
C2233      C2234   1.401       .  A
C2234      N2235   1.442       .  S
N2235      O2239   1.263       .  A
N2235      O2240   1.261       .  A
N2238      O2241   1.259   1_455  A
C2243      C2244   1.404       .  A
C2243      C2248   1.406       .  A
C2243      H2250   1.081       .  S
C2244      C2245   1.410       .  A
C2245      C2246   1.422       .  A
C2245      N2252   1.424       .  S
C2246      C2247   1.416       .  A
C2246      H2251   1.075       .  S
C2247      C2248   1.413       .  A
C2248      N2249   1.420       .  S
N2249      O2253   1.260       .  A
N2249      O2254   1.262       .  A
N2252      O2255   1.262       .  A
N2252      O3276   1.261       .  A
O2256      N3272   1.261       .  A
C2257      C2258   1.399       .  A
C2257      C2262   1.409       .  A
C2257      H2264   1.070       .  S
C2258      C2259   1.420       .  A
C2259      C2260   1.417       .  A
C2259      N2266   1.420       .  S
C2260      C2261   1.400       .  A
C2260      H2265   1.084       .  S
C2261      C2262   1.423       .  A
C2262      N2263   1.437       .  S
N2263      O2267   1.260       .  A
N2266      O2269   1.262       .  A
N2266      O2270   1.260       .  A
C2271      C2272   1.397       .  A
C2271      C2276   1.417       .  A
C2271      H2278   1.058       .  S
C2272      C2273   1.426       .  A
C2273      C2274   1.418       .  A
C2273      N2280   1.419       .  S
C2274      C2275   1.399       .  A
C2274      H2279   1.084       .  S
C2275      C2276   1.427       .  A
C2276      N2277   1.435       .  S
N2277      O2281   1.261       .  A
N2277      O2282   1.260       .  A
N2280      O3303   1.261       .  A
N2280      O2284   1.262       .  A
O2283      N3300   1.261       .  A
C2285      C2286   1.401       .  A
C2285      C2290   1.374       .  A
C2285      H2292   1.083       .  S
C2286      C2287   1.411       .  A
C2287      C2288   1.384       .  A
C2287      N2294   1.449       .  S
C2288      C2289   1.394       .  A
C2288      H2293   1.081       .  S
C2289      C2290   1.404       .  A
C2290      N2291   1.447       .  S
N2291      O2295   1.262       .  A
N2291      O2296   1.261       .  A
N2294      O2297   1.260       .  A
N2294      O2298   1.262       .  A
C2299      C2300   1.409       .  A
C2299      C2304   1.392       .  A
C2299      H2306   1.068       .  S
C2300      C2301   1.397       .  A
C2301      C2302   1.375       .  A
C2301      N2308   1.432       .  S
C2302      C2303   1.400       .  A
C2302      H2307   1.075       .  S
C2303      C2304   1.389       .  A
C2304      N2305   1.431       .  S
N2305      O2309   1.260       .  A
N2305      O2310   1.262       .  A
N2308      O2311   1.261       .  A
N2308      O2312   1.259       .  A
C2313      C2314   1.412       .  A
C2313      C2318   1.432       .  A
C2313      H3340   1.083       .  S
C2314      C2315   1.410       .  A
C2315      C2316   1.413       .  A
C2315      N2322   1.411       .  S
C2316      C2317   1.399       .  A
C2316      H2321   1.082       .  S
C2317      C2318   1.423       .  A
C2318      N2319   1.436       .  S
N2319      O3343   1.261       .  A
N2319      O2324   1.262       .  A
H2320      C3333   1.083       .  S
N2322      O2325   1.257       .  A
N2322      O2326   1.262       .  A
O2323      N3339   1.261       .  A
C2327      C2328   1.412       .  A
C2327      C2332   1.415       .  A
C2327      H2334   1.083       .  S
C2328      C2329   1.434       .  A
C2329      C2330   1.419       .  A
C2329      N2336   1.444       .  S
C2330      C2331   1.404       .  A
C2330      H2335   1.075       .  S
C2331      C2332   1.417       .  A
C2332      N2333   1.427       .  S
N2333      O2337   1.260       .  A
N2333      O2338   1.263       .  A
N2336      O2339   1.258       .  A
N2336      O2340   1.262       .  A
C2341      C2342   1.415       .  A
C2341      C2346   1.426       .  A
C2341      H2348   1.071       .  S
C2342      C2343   1.427       .  A
C2343      C2344   1.419       .  A
C2343      N2350   1.432       .  S
C2344      C2345   1.399       .  A
C2344      H2349   1.075       .  S
C2345      C2346   1.395       .  A
C2346      N2347   1.432       .  S
N2347      O2351   1.256       .  A
N2347      O2352   1.263       .  A
N2350      O2353   1.262       .  A
N2350      O2354   1.263       .  A
C2355      C2356   1.397       .  A
C2355      C2360   1.410       .  A
C2355      H2362   1.081       .  S
C2356      C2357   1.426       .  A
C2357      C2358   1.422       .  A
C2357      N2364   1.445   1_655  S
C2358      C2359   1.409       .  A
C2358      H2363   1.081       .  S
C2359      C2360   1.413       .  A
C2360      N2361   1.431       .  S
N2361      O3385   1.256   1_545  A
N2361      O2366   1.260       .  A
N2364      O2368   1.259       .  A
O2365      N3381   1.256       .  A
C2369      C2370   1.408       .  A
C2369      C2374   1.423       .  A
C2369      H2376   1.083       .  S
C2370      C2371   1.411       .  A
C2371      C2372   1.423       .  A
C2371      N2378   1.445       .  S
C2372      C2373   1.414       .  A
C2372      H2377   1.071       .  S
C2373      C2374   1.422       .  A
C2374      N2375   1.437       .  S
N2375      O2379   1.263       .  A
N2375      O2380   1.260       .  A
N2378      O2381   1.262       .  A
N2378      O2382   1.258       .  A
C2383      C2384   1.409       .  A
C2383      C2388   1.415       .  A
C2383      H2390   1.076   1_655  S
C2384      C2385   1.434       .  A
C2385      C2386   1.430       .  A
C2385      N2392   1.436       .  S
C2386      C2387   1.409       .  A
C2386      H2391   1.083       .  S
C2387      C2388   1.415       .  A
C2388      N2389   1.427       .  S
N2389      O2394   1.261       .  A
N2392      O2395   1.261       .  A
N2392      O2396   1.262       .  A
C2397      C3418   1.410       .  A
C2397      C2402   1.416       .  A
C2397      H2404   1.081       .  S
C2398      C3417   1.410       .  A
C2398      C2399   1.418       .  A
C2399      C2400   1.422   1_545  A
C2399      N2406   1.430       .  S
C2400      C3421   1.412       .  A
C2400      H2405   1.078       .  S
C2401      C3420   1.412       .  A
C2401      C2402   1.406       .  A
C2402      N2403   1.424       .  S
N2403      O2407   1.258       .  A
N2403      O2408   1.262       .  A
N2406      O2409   1.262       .  A
N2406      O2410   1.260       .  A
C2411      C2412   1.411       .  A
C2411      H2418   1.083       .  S
C2413      C2414   1.404       .  A
C2413      N2420   1.421       .  S
C2414      C2415   1.403       .  A
C2414      H2419   1.084       .  S
C2415      C2416   1.427       .  A
C2416      N2417   1.436       .  S
N2417      O2422   1.261       .  A
N2420      O2423   1.261       .  A
N2420      O2424   1.260       .  A
C2425      C2426   1.404       .  A
C2425      C2430   1.408       .  A
C2425      H2432   1.083       .  S
C2426      C2427   1.419       .  A
C2427      C2428   1.420       .  A
C2427      N2434   1.438       .  S
C2428      C2429   1.411       .  A
C2428      H2433   1.082       .  S
C2429      C2430   1.409       .  A
C2430      N2431   1.434       .  S
N2431      O2435   1.261       .  A
N2431      O2436   1.262       .  A
N2434      O2437   1.263       .  A
N2434      O2438   1.262       .  A
C2439      C2440   1.397       .  A
C2439      C2444   1.390       .  A
C2439      H2446   1.082       .  S
C2440      C2441   1.408       .  A
C2441      C2442   1.385       .  A
C2441      N2958   1.444       .  S
C2442      C2443   1.397       .  A
C2442      H2447   1.080       .  S
C2443      C2444   1.408       .  A
C2444      N2445   1.444       .  S
N2445      O2449   1.262       .  A
N2445      O2450   1.261       .  A
N2448      C2951   1.444       .  S
N2448      O2451   1.259   1_556  A
N2448      O2452   1.262       .  A
C2453      C2454   1.396       .  A
C2453      C2458   1.397       .  A
C2453      H2460   1.084       .  S
C2454      C2455   1.418       .  A
C2455      C2456   1.396       .  A
C2455      N2462   1.447       .  S
C2456      C2457   1.395       .  A
C2456      H2461   1.085       .  S
C2457      C2458   1.414       .  A
C2458      N2459   1.445       .  S
N2459      O2463   1.262       .  A
N2459      O2464   1.263       .  A
N2462      O2465   1.263       .  A
N2462      O2466   1.263       .  A
C2467      C2468   1.418       .  A
C2467      C2472   1.428       .  A
C2467      H2474   1.068       .  S
C2468      C2469   1.430       .  A
C2469      C2470   1.429       .  A
C2469      N2476   1.432       .  S
C2470      C2471   1.409       .  A
C2470      H2475   1.082       .  S
C2471      C2472   1.397       .  A
C2472      N2473   1.434       .  S
N2473      O2477   1.258       .  A
N2473      O2478   1.259       .  A
N2476      O2479   1.262   1_655  A
N2476      O2480   1.261       .  A
C2481      C2482   1.406       .  A
C2481      C2486   1.412       .  A
C2481      H2488   1.075       .  S
C2482      C2483   1.418       .  A
C2483      C2484   1.422       .  A
C2483      N2490   1.435       .  S
C2484      C2485   1.413       .  A
C2484      H2489   1.080       .  S
C2485      C2486   1.415       .  A
C2486      N2487   1.429       .  S
N2487      O3511   1.260       .  A
N2487      O2492   1.262       .  A
N2490      O2493   1.262       .  A
N2490      O2494   1.261       .  A
O2491      N3507   1.260       .  A
C2495      C2496   1.393       .  A
C2495      C2500   1.417       .  A
C2495      H2502   1.083       .  S
C2496      C2497   1.431       .  A
C2497      C2498   1.416       .  A
C2497      N2504   1.436       .  S
C2498      C2499   1.399       .  A
C2498      H2503   1.076       .  S
C2499      C2500   1.426       .  A
C2500      N2501   1.425       .  S
N2501      O2505   1.260       .  A
N2501      O2506   1.262       .  A
N2504      O2507   1.263       .  A
N2504      O2508   1.262       .  A
C2509      C2510   1.404       .  A
C2509      C4044   1.425       .  A
C2509      H2516   1.083       .  S
C2510      C2511   1.424       .  A
C2511      C4042   1.411       .  A
C2511      N2518   1.428       .  S
C2512      C4041   1.411   1_544  A
C2512      C2513   1.399       .  A
C2512      H2517   1.083       .  S
C2513      C2514   1.417       .  A
C2514      C4039   1.425   1_544  A
C2514      N2515   1.433       .  S
N2515      O2519   1.257       .  A
N2515      O2520   1.263       .  A
N2518      O3541   1.258       .  A
N2518      O2522   1.263       .  A
O2521      N3538   1.258   1_545  A
C2523      C2524   1.410   1_556  A
C2523      H2530   1.080   1_556  S
C2524      C2525   1.433       .  A
C2525      N3042   1.445       .  S
C2526      C2527   1.407       .  A
C2526      H2531   1.074       .  S
C2527      C3038   1.411       .  A
C2528      C3037   1.411       .  A
C2528      N2529   1.443       .  S
N2529      O2533   1.255       .  A
N2529      O3044   1.262       .  A
N2532      C3035   1.445       .  S
N2532      O2535   1.256       .  A
N2532      O3046   1.261       .  A
O2534      N3039   1.262       .  A
O2536      N3042   1.261       .  A
C2537      C2538   1.384       .  A
C2537      C2542   1.410       .  A
C2537      H2544   1.078       .  S
C2538      C3049   1.421   1_554  A
C2539      C3048   1.421       .  A
C2539      C2540   1.415       .  A
C2539      N2546   1.431       .  S
C2540      C2541   1.404       .  A
C2540      H2545   1.083       .  S
C2541      C3052   1.427       .  A
C2542      C3051   1.427   1_554  A
C2542      N2543   1.425       .  S
N2543      O2547   1.262       .  A
N2543      O3058   1.260       .  A
N2546      O2549   1.261       .  A
N2546      O2550   1.263       .  A
O2548      N3053   1.260       .  A
O2551     Co2571   1.970       .  S
O2552     Co2572   1.930       .  S
O2552      C2560   1.270       .  A
O2553     Co2573   1.920       .  S
O2553      C2561   1.281       .  A
O2554     Co2574   1.930       .  S
O2554      C2562   1.276       .  A
O2555     Co2572   2.125       .  S
O2555      C2561   1.309       .  A
O2556     Co2571   2.074       .  S
O2556      C2562   1.291       .  A
O2557     Co2574   2.122       .  S
O2557      C2560   1.306       .  A
O2558     Co2573   1.973       .  S
C2559      C2950   1.433   1_554  S
C2560      C2981   1.518       .  S
C2561      C3034   1.527       .  S
C2562      C3023   1.508       .  S
O2563     Co2571   2.004       .  S
O2563      C2576   1.269       .  A
O2564     Co2572   1.951       .  S
O2564      C2577   1.249       .  A
O2565     Co2573   2.043       .  S
O2565      C2578   1.281       .  A
O2566     Co2574   2.036       .  S
O2566      C2579   1.286       .  A
O2567     Co2572   1.935       .  S
O2567      C2579   1.247       .  A
O2568     Co2571   1.990       .  S
O2568      C2578   1.275       .  A
O2569     Co2574   2.067       .  S
O2569      C2576   1.293       .  A
O2570     Co2573   2.039       .  S
O2570      C2577   1.274       .  A
Co2571     O2575   2.141       .  S
Co2572     O2575   2.051       .  S
Co2573     O2575   1.866       .  S
Co2574     O2575   1.989       .  S
C2576      C2995   1.518       .  S
C2577      C3006   1.513       .  S
C2578      C3048   1.504       .  S
C2579      C2964   1.442       .  S
O2580     Co2600   1.925       .  S
O2580      C2588   1.251       .  A
O2581     Co2601   1.990       .  S
O2581      C2589   1.256       .  A
O2582     Co2602   2.170       .  S
O2582      C2590   1.315       .  A
O2583     Co2603   2.009       .  S
O2583      C2591   1.281       .  A
O2584     Co2601   1.908       .  S
O2584      C2590   1.268       .  A
O2585     Co2600   2.037       .  S
O2585      C2591   1.287       .  A
O2586     Co2603   1.984       .  S
O2586      C2589   1.264       .  A
O2587     Co2602   2.033       .  S
O2587      C2588   1.293       .  A
C2588      C2967   1.437       .  S
C2589      C2869   1.512       .  S
C2590      C2922   1.520       .  S
C2591      C2908   1.527       .  S
O2592     Co2600   2.018       .  S
O2592      C2605   1.271       .  A
O2593     Co2601   2.129       .  S
O2593      C2606   1.309       .  A
O2594     Co2602   2.124       .  S
O2594      C2607   1.307       .  A
O2595     Co2603   1.961       .  S
O2595      C2608   1.276       .  A
O2596     Co2601   2.015       .  S
O2596      C2608   1.298       .  A
O2597     Co2600   1.891       .  S
O2597      C2607   1.278       .  A
O2598     Co2603   1.997       .  S
O2598      C2605   1.264       .  A
O2599     Co2602   1.970       .  S
O2599      C2606   1.277       .  A
Co2600     O2604   1.870       .  S
Co2601     O2604   1.973       .  S
Co2602     O2604   2.050       .  S
Co2603     O2604   1.995       .  S
C2605      C2880   1.502       .  S
C2606      C2897   1.527       .  S
C2607      C2936   1.502       .  S
C2608      C2953   1.433       .  S
O2609     Co2629   1.999       .  S
O2609      C2617   1.281       .  A
O2610     Co2630   1.913       .  S
O2610      C2618   1.243       .  A
O2611     Co2631   2.023       .  S
O2611      C2619   1.271       .  A
O2612     Co2632   2.074       .  S
O2612      C2620   1.293       .  A
O2613     Co2630   1.998       .  S
O2613      C2619   1.262       .  A
O2614     Co2629   1.974       .  S
O2614      C2620   1.261       .  A
O2615     Co2632   2.026       .  S
O2615      C2618   1.276       .  A
O2616     Co2631   2.016       .  S
O2616      C2617   1.278       .  A
C2617      C2939   1.497       .  S
C2618      C2813   1.446       .  S
C2619      C2838   1.523       .  S
C2620      C2855   1.499       .  S
O2621     Co2629   2.129       .  S
O2621      C2634   1.305       .  A
O2622     Co2630   2.103       .  S
O2622      C2635   1.303       .  A
O2623     Co2631   1.980       .  S
O2623      C2636   1.248       .  A
O2624     Co2632   2.135       .  S
O2624      C2637   1.304       .  A
O2625     Co2630   1.932       .  S
O2625      C2637   1.276       .  A
O2626     Co2629   1.906       .  S
O2626      C2636   1.241       .  A
O2627     Co2632   1.900       .  S
O2627      C2634   1.266       .  A
O2628     Co2631   1.922       .  S
O2628      C2635   1.281       .  A
Co2629     O2633   2.109       .  S
Co2630     O2633   1.999       .  S
Co2631     O2633   1.885       .  S
Co2632     O2633   2.013       .  S
C2634      C2911   1.523       .  S
C2635      C2925   1.515       .  S
C2636      C2796   1.423       .  S
C2637      C2827   1.526       .  S
O2638     Co2658   2.016       .  S
O2638      C2646   1.265       .  A
O2639     Co2659   1.914       .  S
O2639      C2647   1.240       .  A
O2640     Co2660   2.017       .  S
O2640      C2648   1.273       .  A
O2641     Co2661   2.003       .  S
O2641      C2649   1.256       .  A
O2642     Co2659   2.045       .  S
O2642      C2648   1.283       .  A
O2643     Co2658   2.011       .  S
O2643      C2649   1.261       .  A
O2644     Co2661   1.931       .  S
O2644      C2647   1.240       .  A
O2645     Co2660   1.989       .  S
O2645      C2646   1.267       .  A
C2646      C3051   1.514       .  S
C2647      C2799   1.401       .  S
C2648      C2768   1.515       .  S
C2649      C2785   1.521       .  S
O2650     Co2658   1.919       .  S
O2650      C2663   1.271       .  A
O2651     Co2659   1.982       .  S
O2651      C2664   1.258       .  A
O2652     Co2660   1.995       .  S
O2653     Co2661   2.064       .  S
O2653      C2666   1.308       .  A
O2654     Co2659   1.893       .  S
O2654      C2666   1.273       .  A
O2655     Co2658   1.965       .  S
O2656     Co2661   2.130       .  S
O2656      C2663   1.310       .  A
O2657     Co2660   2.023       .  S
O2657      C2664   1.266       .  A
Co2658     O2662   1.885       .  S
Co2659     O2662   1.923       .  S
Co2660     O2662   2.110       .  S
Co2661     O2662   2.299       .  S
C2663      C3020   1.523       .  S
C2664      C3037   1.516       .  S
C2665      C2810   1.445       .  S
C2666      C2754   1.515       .  S
O2667     Co2687   1.993       .  S
O2667      C2675   1.274       .  A
O2668     Co2688   1.942       .  S
O2668      C2676   1.249       .  A
O2669     Co2689   2.038   1_554  S
O2670     Co3710   2.133       .  S
O2670      C2678   1.302       .  A
O2671     Co3708   2.011       .  S
O2671      C2677   1.273       .  A
O2672      C2678   1.258       .  A
O2673     Co2690   1.976       .  S
O2674      C2675   1.289   1_455  A
C2675      C2894   1.538       .  S
C2676      C2740   1.412       .  S
C2677      C2824   1.539       .  S
C2678      C2852   1.534       .  S
O2679     Co3707   2.072   1_545  S
O2679      C2692   1.293       .  A
O2680      C2693   1.309       .  A
O2681     Co2689   1.967       .  S
O2682      C2695   1.311       .  A
O2683     Co2688   1.907       .  S
O2683      C2695   1.274       .  A
O2684     Co2687   1.929       .  S
O2684      C2694   1.243   1_655  A
O2685      C2692   1.267       .  A
O2686     Co3709   1.942       .  S
O2686      C2693   1.282   1_565  A
Co2687     O3699   2.072       .  S
Co2688     O3691   2.011   1_545  S
Co2689     O3706   1.942       .  S
Co2689     O3711   1.911   1_556  S
Co2690     O3690   2.133       .  S
O2691     Co3709   1.911   1_554  S
C2692      C2866   1.505       .  S
C2693      C2883   1.529       .  S
C2695      C2841   1.524       .  S
O2696     Co2716   1.996       .  S
O2696      C2704   1.277       .  A
O2697     Co2717   1.930   1_565  S
O2697      C2705   1.214       .  A
O2698     Co2718   2.109       .  S
O2698      C2706   1.305       .  A
O2699     Co3739   2.063       .  S
O2699      C2707   1.293       .  A
O2700     Co3737   1.948       .  S
O2700      C2706   1.277       .  A
O2701     Co2716   2.026       .  S
O2701      C2707   1.277       .  A
O2702     Co2719   2.006       .  S
O2703      C2704   1.286       .  A
C2704      C3009   1.520       .  S
C2705      C2729   1.428       .  S
C2706      C2757   1.523       .  S
C2707      C2782   1.536       .  S
O2708     Co3736   2.069   1_545  S
O2708      C2721   1.286       .  A
O2709     Co2717   2.098       .  S
O2709      C2722   1.303       .  A
O2710     Co2718   1.947       .  S
O2711      C2724   1.278       .  A
O2712     Co2717   2.190       .  S
O2712      C2724   1.328       .  A
O2713     Co2716   1.955       .  S
O2713      C2723   1.258       .  A
O2714     Co2719   2.013       .  S
O2714      C2721   1.268       .  A
O2715     Co3738   1.932       .  S
O2715      C2722   1.277   1_565  A
Co2716     O3728   2.069       .  S
Co2717     O3720   1.948       .  S
Co2717     O2720   2.023   1_545  S
Co2718     O3735   1.932       .  S
Co2718     O3740   2.000       .  S
Co2719     O3719   2.063       .  S
O2720     Co3738   2.000       .  S
C2721      C2978   1.552       .  S
C2722      C2992   1.509       .  S
C2724      C2771   1.501       .  S
C2725      C2726   1.402       .  A
C2725      C2730   1.386       .  A
C2725      H2732   1.082       .  S
C2727      C2728   1.379       .  A
C2727      N2734   1.445       .  S
C2728      H2733   1.072       .  S
C2729      C3750   1.409       .  A
C2730      C3749   1.409       .  A
C2730      N2731   1.448       .  S
N2731      O2735   1.261       .  A
N2731      O2736   1.262       .  A
N2734      O2737   1.261       .  A
N2734      O2738   1.260       .  A
C2739      C3760   1.394       .  A
C2739      C2744   1.377       .  A
C2739      H2746   1.086       .  S
C2740      C3759   1.394   1_545  A
C2741      C2742   1.381       .  A
C2741      N2748   1.437   1_655  S
C2742      H2747   1.084   1_655  S
C2743      C2744   1.401       .  A
C2744      N2745   1.442       .  S
N2745      O2749   1.263       .  A
N2745      O2750   1.261       .  A
N2748      O2751   1.259   1_455  A
C2753      C2754   1.404       .  A
C2753      C2758   1.406       .  A
C2753      H2760   1.081       .  S
C2754      C2755   1.410       .  A
C2755      C2756   1.422       .  A
C2755      N2762   1.424       .  S
C2756      C2757   1.416       .  A
C2756      H2761   1.075       .  S
C2757      C2758   1.413       .  A
C2758      N2759   1.420       .  S
N2759      O2763   1.260       .  A
N2759      O2764   1.262       .  A
N2762      O2765   1.262       .  A
N2762      O3786   1.261       .  A
O2766      N3782   1.261       .  A
C2767      C2768   1.399       .  A
C2767      C2772   1.409       .  A
C2767      H2774   1.070       .  S
C2768      C2769   1.420       .  A
C2769      C2770   1.417       .  A
C2769      N2776   1.420       .  S
C2770      C2771   1.400       .  A
C2770      H2775   1.084       .  S
C2771      C2772   1.423       .  A
C2772      N2773   1.437       .  S
N2773      O2777   1.260       .  A
N2776      O2779   1.262       .  A
N2776      O2780   1.260       .  A
C2781      C2782   1.397       .  A
C2781      C2786   1.417       .  A
C2781      H2788   1.058       .  S
C2782      C2783   1.426       .  A
C2783      C2784   1.418       .  A
C2783      N2790   1.419       .  S
C2784      C2785   1.399       .  A
C2784      H2789   1.084       .  S
C2785      C2786   1.427       .  A
C2786      N2787   1.435       .  S
N2787      O2791   1.261       .  A
N2787      O2792   1.260       .  A
N2790      O3813   1.261       .  A
N2790      O2794   1.262       .  A
O2793      N3810   1.261       .  A
C2795      C2796   1.401       .  A
C2795      C2800   1.374       .  A
C2795      H2802   1.083       .  S
C2796      C2797   1.411       .  A
C2797      C2798   1.384       .  A
C2797      N2804   1.449       .  S
C2798      C2799   1.394       .  A
C2798      H2803   1.081       .  S
C2799      C2800   1.404       .  A
C2800      N2801   1.447       .  S
N2801      O2805   1.262       .  A
N2801      O2806   1.261       .  A
N2804      O2807   1.260       .  A
N2804      O2808   1.262       .  A
C2809      C2810   1.409       .  A
C2809      C2814   1.392       .  A
C2809      H2816   1.068       .  S
C2810      C2811   1.397       .  A
C2811      C2812   1.375       .  A
C2811      N2818   1.432       .  S
C2812      C2813   1.400       .  A
C2812      H2817   1.075       .  S
C2813      C2814   1.389       .  A
C2814      N2815   1.431       .  S
N2815      O2819   1.260       .  A
N2815      O2820   1.262       .  A
N2818      O2821   1.261       .  A
N2818      O2822   1.259       .  A
C2823      C2824   1.412       .  A
C2823      C2828   1.432       .  A
C2823      H3850   1.083       .  S
C2824      C2825   1.410       .  A
C2825      C2826   1.413       .  A
C2825      N2832   1.411       .  S
C2826      C2827   1.399       .  A
C2826      H2831   1.082       .  S
C2827      C2828   1.423       .  A
C2828      N2829   1.436       .  S
N2829      O3853   1.261       .  A
N2829      O2834   1.262       .  A
H2830      C3843   1.083       .  S
N2832      O2835   1.257       .  A
N2832      O2836   1.262       .  A
O2833      N3849   1.261       .  A
C2837      C2838   1.412       .  A
C2837      C2842   1.415       .  A
C2837      H2844   1.083       .  S
C2838      C2839   1.434       .  A
C2839      C2840   1.419       .  A
C2839      N2846   1.444       .  S
C2840      C2841   1.404       .  A
C2840      H2845   1.075       .  S
C2841      C2842   1.417       .  A
C2842      N2843   1.427       .  S
N2843      O2847   1.260       .  A
N2843      O2848   1.263       .  A
N2846      O2849   1.258       .  A
N2846      O2850   1.262       .  A
C2851      C2852   1.415       .  A
C2851      C2856   1.426       .  A
C2851      H2858   1.071       .  S
C2852      C2853   1.427       .  A
C2853      C2854   1.419       .  A
C2853      N2860   1.432       .  S
C2854      C2855   1.399       .  A
C2854      H2859   1.075       .  S
C2855      C2856   1.395       .  A
C2856      N2857   1.433       .  S
N2857      O2861   1.256       .  A
N2857      O2862   1.263       .  A
N2860      O2863   1.262       .  A
N2860      O2864   1.263       .  A
C2865      C2866   1.397       .  A
C2865      C2870   1.410       .  A
C2865      H2872   1.081       .  S
C2866      C2867   1.426       .  A
C2867      C2868   1.422       .  A
C2867      N2874   1.445   1_655  S
C2868      C2869   1.409       .  A
C2868      H2873   1.081       .  S
C2869      C2870   1.413       .  A
C2870      N2871   1.431       .  S
N2871      O3895   1.256   1_545  A
N2871      O2876   1.260       .  A
N2874      O2878   1.259       .  A
O2875      N3891   1.256       .  A
C2879      C2880   1.408       .  A
C2879      C2884   1.423       .  A
C2879      H2886   1.083       .  S
C2880      C2881   1.411       .  A
C2881      C2882   1.423       .  A
C2881      N2888   1.445       .  S
C2882      C2883   1.414       .  A
C2882      H2887   1.071       .  S
C2883      C2884   1.422       .  A
C2884      N2885   1.437       .  S
N2885      O2889   1.263       .  A
N2885      O2890   1.260       .  A
N2888      O2891   1.262       .  A
N2888      O2892   1.258       .  A
C2893      C2894   1.409       .  A
C2893      C2898   1.415       .  A
C2893      H2900   1.076   1_655  S
C2894      C2895   1.434       .  A
C2895      C2896   1.430       .  A
C2895      N2902   1.436       .  S
C2896      C2897   1.409       .  A
C2896      H2901   1.083       .  S
C2897      C2898   1.415       .  A
C2898      N2899   1.427       .  S
N2899      O2904   1.261       .  A
N2902      O2905   1.261       .  A
N2902      O2906   1.262       .  A
C2907      C3928   1.410       .  A
C2907      C2912   1.416       .  A
C2907      H2914   1.081       .  S
C2908      C3927   1.411       .  A
C2908      C2909   1.418       .  A
C2909      C2910   1.422   1_545  A
C2909      N2916   1.430       .  S
C2910      C3931   1.412       .  A
C2910      H2915   1.078       .  S
C2911      C3930   1.412       .  A
C2911      C2912   1.406       .  A
C2912      N2913   1.424       .  S
N2913      O2917   1.258       .  A
N2913      O2918   1.262       .  A
N2916      O2919   1.262       .  A
N2916      O2920   1.260       .  A
C2921      C2922   1.411       .  A
C2921      H2928   1.083       .  S
C2923      C2924   1.404       .  A
C2923      N2930   1.421       .  S
C2924      C2925   1.403       .  A
C2924      H2929   1.084       .  S
C2925      C2926   1.427       .  A
C2926      N2927   1.436       .  S
N2927      O2932   1.261       .  A
N2930      O2933   1.261       .  A
N2930      O2934   1.260       .  A
C2935      C2936   1.404       .  A
C2935      C2940   1.408       .  A
C2935      H2942   1.083       .  S
C2936      C2937   1.419       .  A
C2937      C2938   1.420       .  A
C2937      N2944   1.438       .  S
C2938      C2939   1.411       .  A
C2938      H2943   1.082       .  S
C2939      C2940   1.409       .  A
C2940      N2941   1.434       .  S
N2941      O2945   1.261       .  A
N2941      O2946   1.262       .  A
N2944      O2947   1.263       .  A
N2944      O2948   1.262       .  A
C2949      C2950   1.397       .  A
C2949      C2954   1.390       .  A
C2949      H2956   1.082       .  S
C2950      C2951   1.408       .  A
C2951      C2952   1.385       .  A
C2952      C2953   1.397       .  A
C2952      H2957   1.080       .  S
C2953      C2954   1.408       .  A
C2954      N2955   1.444       .  S
N2955      O2959   1.262       .  A
N2955      O2960   1.261       .  A
N2958      O2961   1.259       .  A
N2958      O2962   1.262       .  A
C2963      C2964   1.396       .  A
C2963      C2968   1.397       .  A
C2963      H2970   1.084       .  S
C2964      C2965   1.418       .  A
C2965      C2966   1.396       .  A
C2965      N2972   1.447       .  S
C2966      C2967   1.395       .  A
C2966      H2971   1.085       .  S
C2967      C2968   1.414       .  A
C2968      N2969   1.445       .  S
N2969      O2973   1.262       .  A
N2969      O2974   1.263       .  A
N2972      O2975   1.263       .  A
N2972      O2976   1.263       .  A
C2977      C2978   1.418       .  A
C2977      C2982   1.428       .  A
C2977      H2984   1.068       .  S
C2978      C2979   1.430       .  A
C2979      C2980   1.429       .  A
C2979      N2986   1.432       .  S
C2980      C2981   1.409       .  A
C2980      H2985   1.082       .  S
C2981      C2982   1.397       .  A
C2982      N2983   1.434       .  S
N2983      O2987   1.258       .  A
N2983      O2988   1.259       .  A
N2986      O2989   1.262   1_655  A
N2986      O2990   1.261       .  A
C2991      C2992   1.406       .  A
C2991      C2996   1.412       .  A
C2991      H2998   1.075       .  S
C2992      C2993   1.418       .  A
C2993      C2994   1.422       .  A
C2993      N3000   1.435       .  S
C2994      C2995   1.413       .  A
C2994      H2999   1.080       .  S
C2995      C2996   1.415       .  A
C2996      N2997   1.429       .  S
N2997      O4021   1.260       .  A
N2997      O3002   1.262       .  A
N3000      O3003   1.262       .  A
N3000      O3004   1.261       .  A
O3001      N4017   1.260       .  A
C3005      C3006   1.393       .  A
C3005      C3010   1.417       .  A
C3005      H3012   1.083       .  S
C3006      C3007   1.431       .  A
C3007      C3008   1.416       .  A
C3007      N3014   1.436       .  S
C3008      C3009   1.399       .  A
C3008      H3013   1.076       .  S
C3009      C3010   1.426       .  A
C3010      N3011   1.425       .  S
N3011      O3015   1.260       .  A
N3011      O3016   1.262       .  A
N3014      O3017   1.263       .  A
N3014      O3018   1.262       .  A
C3019      C3020   1.404       .  A
C3019      C3534   1.425   1_556  A
C3019      H3026   1.083       .  S
C3020      C3021   1.424       .  A
C3021      C3532   1.411   1_556  A
C3021      N3028   1.428       .  S
C3022      C3531   1.411   1_545  A
C3022      C3023   1.399       .  A
C3022      H3027   1.083       .  S
C3023      C3024   1.417       .  A
C3024      C3529   1.425   1_545  A
C3024      N3025   1.433       .  S
N3025      O3029   1.257       .  A
N3025      O3030   1.263       .  A
N3028      O4051   1.258       .  A
N3028      O3032   1.263       .  A
O3031      N4048   1.258   1_545  A
C3033      C3034   1.410       .  A
C3033      H3040   1.080       .  S
C3034      C3035   1.433       .  A
C3036      C3037   1.407       .  A
C3036      H3041   1.074       .  S
C3038      N3039   1.443       .  S
N3039      O3043   1.255       .  A
N3042      O3045   1.256       .  A
C3047      C3048   1.384       .  A
C3047      C3052   1.410       .  A
C3047      H3054   1.079       .  S
C3049      C3050   1.415       .  A
C3049      N3056   1.431       .  S
C3050      C3051   1.404       .  A
C3050      H3055   1.083       .  S
C3052      N3053   1.425       .  S
N3053      O3057   1.262       .  A
N3056      O3059   1.261   1_556  A
N3056      O3060   1.263       .  A
O3061     Co3081   1.970       .  S
O3061      C3579   1.245       .  A
O3062     Co3082   1.931       .  S
O3062      C3070   1.270       .  A
O3063     Co3083   1.920       .  S
O3063      C3071   1.281       .  A
O3064     Co3084   1.930       .  S
O3064      C3072   1.276       .  A
O3065     Co3082   2.125       .  S
O3065      C3071   1.309       .  A
O3066     Co3081   2.073       .  S
O3066      C3072   1.291       .  A
O3067     Co3084   2.122       .  S
O3067      C3070   1.306       .  A
O3068     Co3083   1.973       .  S
O3068      C3579   1.235       .  A
C3069      O3571   1.245       .  A
C3069      O3578   1.235       .  A
C3069      C3460   1.433       .  S
C3070      C3491   1.518       .  S
C3071      C3544   1.527       .  S
C3072      C3533   1.508       .  S
O3073     Co3081   2.004       .  S
O3073      C3086   1.269       .  A
O3074     Co3082   1.951       .  S
O3074      C3087   1.249       .  A
O3075     Co3083   2.043       .  S
O3075      C3088   1.281       .  A
O3076     Co3084   2.036       .  S
O3076      C3089   1.286       .  A
O3077     Co3082   1.935       .  S
O3077      C3089   1.247       .  A
O3078     Co3081   1.990       .  S
O3078      C3088   1.275       .  A
O3079     Co3084   2.067       .  S
O3079      C3086   1.293       .  A
O3080     Co3083   2.039       .  S
O3080      C3087   1.274       .  A
Co3081     O3085   2.141       .  S
Co3082     O3085   2.051       .  S
Co3083     O3085   1.866       .  S
Co3084     O3085   1.989       .  S
C3086      C3505   1.518       .  S
C3087      C3516   1.513       .  S
C3088      C3558   1.504       .  S
C3089      C3474   1.442       .  S
O3090     Co3110   1.925       .  S
O3090      C3098   1.251       .  A
O3091     Co3111   1.990       .  S
O3091      C3099   1.256       .  A
O3092     Co3112   2.170       .  S
O3092      C3100   1.315       .  A
O3093     Co3113   2.009       .  S
O3093      C3101   1.281       .  A
O3094     Co3111   1.908       .  S
O3094      C3100   1.268       .  A
O3095     Co3110   2.037       .  S
O3095      C3101   1.287       .  A
O3096     Co3113   1.984       .  S
O3096      C3099   1.264       .  A
O3097     Co3112   2.033       .  S
O3097      C3098   1.293       .  A
C3098      C3477   1.437       .  S
C3099      C3379   1.512       .  S
C3100      C3432   1.520       .  S
C3101      C3418   1.527       .  S
O3102     Co3110   2.018       .  S
O3102      C3115   1.271       .  A
O3103     Co3111   2.129       .  S
O3103      C3116   1.309       .  A
O3104     Co3112   2.124       .  S
O3104      C3117   1.307       .  A
O3105     Co3113   1.961       .  S
O3105      C3118   1.276       .  A
O3106     Co3111   2.015       .  S
O3106      C3118   1.298       .  A
O3107     Co3110   1.891       .  S
O3107      C3117   1.278       .  A
O3108     Co3113   1.997       .  S
O3108      C3115   1.264       .  A
O3109     Co3112   1.970       .  S
O3109      C3116   1.277       .  A
Co3110     O3114   1.870       .  S
Co3111     O3114   1.973       .  S
Co3112     O3114   2.050       .  S
Co3113     O3114   1.995       .  S
C3115      C3390   1.502       .  S
C3116      C3407   1.527       .  S
C3117      C3446   1.502       .  S
C3118      C3463   1.433       .  S
O3119     Co3139   1.999       .  S
O3119      C3127   1.281       .  A
O3120     Co3140   1.913       .  S
O3120      C3128   1.244       .  A
O3121     Co3141   2.023       .  S
O3121      C3129   1.271       .  A
O3122     Co3142   2.074       .  S
O3122      C3130   1.293       .  A
O3123     Co3140   1.998       .  S
O3123      C3129   1.262       .  A
O3124     Co3139   1.974       .  S
O3124      C3130   1.261       .  A
O3125     Co3142   2.026       .  S
O3125      C3128   1.276       .  A
O3126     Co3141   2.016       .  S
O3126      C3127   1.278       .  A
C3127      C3449   1.497       .  S
C3128      C3323   1.446       .  S
C3129      C3348   1.523       .  S
C3130      C3365   1.499       .  S
O3131     Co3139   2.129       .  S
O3131      C3144   1.306       .  A
O3132     Co3140   2.103       .  S
O3132      C3145   1.303       .  A
O3133     Co3141   1.980       .  S
O3133      C3146   1.248       .  A
O3134     Co3142   2.135       .  S
O3134      C3147   1.304       .  A
O3135     Co3140   1.932       .  S
O3135      C3147   1.276       .  A
O3136     Co3139   1.906       .  S
O3136      C3146   1.241       .  A
O3137     Co3142   1.900       .  S
O3137      C3144   1.266       .  A
O3138     Co3141   1.922       .  S
O3138      C3145   1.281       .  A
Co3139     O3143   2.109       .  S
Co3140     O3143   1.999       .  S
Co3141     O3143   1.885       .  S
Co3142     O3143   2.013       .  S
C3144      C3421   1.523       .  S
C3145      C3435   1.515       .  S
C3146      C3306   1.423       .  S
C3147      C3337   1.526       .  S
O3148     Co3168   2.016       .  S
O3148      C3156   1.265       .  A
O3149     Co3169   1.914       .  S
O3149      C3157   1.240       .  A
O3150     Co3170   2.017       .  S
O3150      C3158   1.273       .  A
O3151     Co3171   2.003       .  S
O3151      C3159   1.256       .  A
O3152     Co3169   2.045       .  S
O3152      C3158   1.283       .  A
O3153     Co3168   2.011       .  S
O3153      C3159   1.261       .  A
O3154     Co3171   1.931       .  S
O3154      C3157   1.240       .  A
O3155     Co3170   1.989       .  S
O3155      C3156   1.267       .  A
C3156      C3561   1.514       .  S
C3157      C3309   1.401       .  S
C3158      C3278   1.514       .  S
C3159      C3295   1.521       .  S
O3160     Co3168   1.919       .  S
O3160      C3173   1.271       .  A
O3161     Co3169   1.982       .  S
O3161      C3174   1.258       .  A
O3162     Co3170   1.995       .  S
O3162      C3685   1.263       .  A
O3163     Co3171   2.064       .  S
O3163      C3176   1.308       .  A
O3164     Co3169   1.893       .  S
O3164      C3176   1.273       .  A
O3165     Co3168   1.965       .  S
O3165      C3685   1.246       .  A
O3166     Co3171   2.130       .  S
O3166      C3173   1.310       .  A
O3167     Co3170   2.023       .  S
O3167      C3174   1.266       .  A
Co3168     O3172   1.885       .  S
Co3169     O3172   1.923       .  S
Co3170     O3172   2.110       .  S
Co3171     O3172   2.299       .  S
C3173      C3530   1.523       .  S
C3174      C3547   1.516       .  S
C3175      O3672   1.263       .  A
C3175      O3675   1.246       .  A
C3175      C3320   1.445   1_556  S
C3176      C3264   1.515       .  S
O3177     Co3197   1.993       .  S
O3177      C3185   1.274       .  A
O3178     Co3198   1.942       .  S
O3178      C3186   1.249       .  A
O3179     Co3199   2.039       .  S
O3179      C3697   1.279       .  A
O3180      C3188   1.302   1_545  A
O3181      C3187   1.273       .  A
O3182     Co3707   1.969   1_554  S
O3182      C3188   1.258       .  A
O3183     Co3200   1.976       .  S
O3184      C3185   1.289   1_455  A
C3185      C3404   1.538       .  S
C3186      C3250   1.412       .  S
C3187      O3689   1.279       .  A
C3187      C3334   1.539       .  S
C3188      C3362   1.534       .  S
O3189      C3202   1.293       .  A
O3190     Co3708   2.141       .  S
O3190      C3203   1.309       .  A
O3191     Co3199   1.967   1_545  S
O3192      C3205   1.311       .  A
O3193     Co3198   1.907       .  S
O3193      C3205   1.274       .  A
O3194     Co3197   1.929       .  S
O3194      C3204   1.243   1_655  A
O3195     Co3710   1.915       .  S
O3195      C3202   1.267       .  A
O3196      C3203   1.282       .  A
Co3197     O3692   1.969       .  S
Co3198     O3700   2.141   1_554  S
Co3198     O3711   2.032       .  S
Co3200     O3705   1.915   1_554  S
O3201     Co3708   2.032       .  S
C3202      C3376   1.505       .  S
C3203      C3393   1.529       .  S
C3205      C3351   1.524       .  S
O3206     Co3226   1.995       .  S
O3206      C3214   1.277       .  A
O3207     Co3227   1.930       .  S
O3207      C3215   1.214       .  A
O3208     Co3228   2.109       .  S
O3208      C3216   1.305       .  A
O3209      C3217   1.293   1_545  A
O3210      C3216   1.277   1_545  A
O3211     Co3226   2.026       .  S
O3211      C3217   1.277       .  A
O3212     Co3229   2.006       .  S
O3213      C3214   1.286       .  A
C3214      C3519   1.520       .  S
C3215      C3239   1.428       .  S
C3216      C3267   1.523       .  S
C3217      C3292   1.536       .  S
O3218      C3231   1.286       .  A
O3219     Co3227   2.098       .  S
O3219      C3232   1.303       .  A
O3220     Co3228   1.947   1_545  S
O3221      C3234   1.278       .  A
O3222     Co3227   2.190       .  S
O3222      C3234   1.328       .  A
O3223     Co3226   1.955       .  S
O3223      C3233   1.258       .  A
O3224     Co3229   2.013       .  S
O3224      C3231   1.268       .  A
O3225      C3232   1.277       .  A
Co3227     O3230   2.023       .  S
C3231      C3488   1.552       .  S
C3232      C3502   1.509       .  S
C3234      C3281   1.501       .  S
C3235      C3236   1.402       .  A
C3235      C3240   1.386       .  A
C3235      H3242   1.082       .  S
C3237      C3238   1.379       .  A
C3237      N3244   1.445       .  S
C3238      H3243   1.072       .  S
C3240      N3241   1.448       .  S
N3241      O3245   1.261       .  A
N3241      O3246   1.262       .  A
N3244      O3247   1.261       .  A
N3244      O3248   1.260       .  A
C3249      C3254   1.377       .  A
C3249      H3256   1.086       .  S
C3251      C3252   1.381       .  A
C3251      N3258   1.437   1_655  S
C3252      H3257   1.084   1_655  S
C3253      C3254   1.401   1_545  A
C3254      N3255   1.442       .  S
N3255      O3259   1.263       .  A
N3255      O3260   1.261       .  A
N3258      O3261   1.259   1_455  A
C3263      C3264   1.404       .  A
C3263      C3268   1.406       .  A
C3263      H3270   1.081       .  S
C3264      C3265   1.410       .  A
C3265      C3266   1.422       .  A
C3265      N3272   1.424       .  S
C3266      C3267   1.416       .  A
C3266      H3271   1.075   1_565  S
C3267      C3268   1.413       .  A
C3268      N3269   1.420       .  S
N3269      O3273   1.260       .  A
N3269      O3274   1.262       .  A
N3272      O3275   1.262       .  A
C3277      C3278   1.399       .  A
C3277      C3282   1.409       .  A
C3277      H3284   1.070       .  S
C3278      C3279   1.420       .  A
C3279      C3280   1.417       .  A
C3279      N3286   1.420       .  S
C3280      C3281   1.400       .  A
C3280      H3285   1.084       .  S
C3281      C3282   1.423       .  A
C3282      N3283   1.437       .  S
N3283      O3287   1.260       .  A
N3286      O3289   1.262       .  A
N3286      O3290   1.260       .  A
C3291      C3292   1.397       .  A
C3291      C3296   1.417       .  A
C3291      H3298   1.058       .  S
C3292      C3293   1.426       .  A
C3293      C3294   1.418       .  A
C3293      N3300   1.419       .  S
C3294      C3295   1.399       .  A
C3294      H3299   1.084       .  S
C3295      C3296   1.427       .  A
C3296      N3297   1.435       .  S
N3297      O3301   1.261       .  A
N3297      O3302   1.260       .  A
N3300      O3304   1.262       .  A
C3305      C3306   1.401       .  A
C3305      C3310   1.374       .  A
C3305      H3312   1.083       .  S
C3306      C3307   1.410       .  A
C3307      C3308   1.384       .  A
C3307      N3314   1.449       .  S
C3308      C3309   1.394       .  A
C3308      H3313   1.081       .  S
C3309      C3310   1.404       .  A
C3310      N3311   1.447       .  S
N3311      O3315   1.262       .  A
N3311      O3316   1.261       .  A
N3314      O3317   1.260       .  A
N3314      O3318   1.262       .  A
C3319      C3320   1.409       .  A
C3319      C3324   1.392       .  A
C3319      H3326   1.068       .  S
C3320      C3321   1.396       .  A
C3321      C3322   1.375       .  A
C3321      N3328   1.432       .  S
C3322      C3323   1.400       .  A
C3322      H3327   1.075       .  S
C3323      C3324   1.389       .  A
C3324      N3325   1.431       .  S
N3325      O3329   1.260       .  A
N3325      O3330   1.262       .  A
N3328      O3331   1.261       .  A
N3328      O3332   1.259       .  A
C3333      C3334   1.412       .  A
C3333      C3338   1.432       .  A
C3334      C3335   1.410       .  A
C3335      C3336   1.413       .  A
C3335      N3342   1.411       .  S
C3336      C3337   1.399       .  A
C3336      H3341   1.082       .  S
C3337      C3338   1.424       .  A
C3338      N3339   1.436       .  S
N3339      O3344   1.262       .  A
N3342      O3345   1.257       .  A
N3342      O3346   1.262       .  A
C3347      C3348   1.412       .  A
C3347      C3352   1.415       .  A
C3347      H3354   1.083       .  S
C3348      C3349   1.434       .  A
C3349      C3350   1.419       .  A
C3349      N3356   1.444       .  S
C3350      C3351   1.404       .  A
C3350      H3355   1.075       .  S
C3351      C3352   1.417       .  A
C3352      N3353   1.427       .  S
N3353      O3357   1.260       .  A
N3353      O3358   1.263       .  A
N3356      O3359   1.258       .  A
N3356      O3360   1.262       .  A
C3361      C3362   1.415       .  A
C3361      C3366   1.426       .  A
C3361      H3368   1.071   1_565  S
C3362      C3363   1.427       .  A
C3363      C3364   1.419       .  A
C3363      N3370   1.432       .  S
C3364      C3365   1.399       .  A
C3364      H3369   1.075       .  S
C3365      C3366   1.395       .  A
C3366      N3367   1.432       .  S
N3367      O3371   1.256       .  A
N3367      O3372   1.263       .  A
N3370      O3373   1.262       .  A
N3370      O3374   1.263       .  A
C3375      C3376   1.397       .  A
C3375      C3380   1.410       .  A
C3375      H3382   1.081       .  S
C3376      C3377   1.426       .  A
C3377      C3378   1.422       .  A
C3377      N3384   1.445   1_655  S
C3378      C3379   1.409       .  A
C3378      H3383   1.081       .  S
C3379      C3380   1.413       .  A
C3380      N3381   1.431       .  S
N3381      O3386   1.260       .  A
N3384      O3388   1.259       .  A
C3389      C3390   1.408       .  A
C3389      C3394   1.423       .  A
C3389      H3396   1.083       .  S
C3390      C3391   1.411       .  A
C3391      C3392   1.423       .  A
C3391      N3398   1.445       .  S
C3392      C3393   1.414       .  A
C3392      H3397   1.071       .  S
C3393      C3394   1.422       .  A
C3394      N3395   1.437       .  S
N3395      O3399   1.263       .  A
N3395      O3400   1.260       .  A
N3398      O3401   1.262       .  A
N3398      O3402   1.258       .  A
C3403      C3404   1.409       .  A
C3403      C3408   1.415       .  A
C3403      H3410   1.076   1_655  S
C3404      C3405   1.434       .  A
C3405      C3406   1.430       .  A
C3405      N3412   1.436       .  S
C3406      C3407   1.409       .  A
C3406      H3411   1.083       .  S
C3407      C3408   1.415       .  A
C3408      N3409   1.427       .  S
N3409      O3414   1.261       .  A
N3412      O3415   1.261       .  A
N3412      O3416   1.262       .  A
C3417      C3422   1.416   1_545  A
C3417      H3424   1.081       .  S
C3418      C3419   1.418       .  A
C3419      C3420   1.422       .  A
C3419      N3426   1.430       .  S
C3420      H3425   1.078       .  S
C3421      C3422   1.406       .  A
C3422      N3423   1.424       .  S
N3423      O3427   1.258       .  A
N3423      O3428   1.262       .  A
N3426      O3429   1.262       .  A
N3426      O3430   1.260       .  A
C3431      C3432   1.411       .  A
C3431      H3438   1.083       .  S
C3433      C3434   1.404       .  A
C3433      N3440   1.421       .  S
C3434      C3435   1.403       .  A
C3434      H3439   1.084       .  S
C3435      C3436   1.428       .  A
C3436      N3437   1.436       .  S
N3437      O3442   1.261       .  A
N3440      O3443   1.261       .  A
N3440      O3444   1.260       .  A
C3445      C3446   1.404       .  A
C3445      C3450   1.408       .  A
C3445      H3452   1.083       .  S
C3446      C3447   1.419       .  A
C3447      C3448   1.420       .  A
C3447      N3454   1.438       .  S
C3448      C3449   1.411       .  A
C3448      H3453   1.082       .  S
C3449      C3450   1.409       .  A
C3450      N3451   1.434       .  S
N3451      O3455   1.261       .  A
N3451      O3456   1.262       .  A
N3454      O3457   1.263       .  A
N3454      O3458   1.262       .  A
C3459      C3460   1.397       .  A
C3459      C3464   1.390       .  A
C3459      H3466   1.082       .  S
C3460      C3461   1.408       .  A
C3461      C3462   1.385       .  A
C3461      N3978   1.444       .  S
C3462      C3463   1.397       .  A
C3462      H3467   1.080       .  S
C3463      C3464   1.408       .  A
C3464      N3465   1.444       .  S
N3465      O3469   1.262       .  A
N3465      O3470   1.261       .  A
N3468      C3971   1.444       .  S
N3468      O3471   1.259   1_556  A
N3468      O3472   1.262       .  A
C3473      C3474   1.396       .  A
C3473      C3478   1.397       .  A
C3473      H3480   1.084       .  S
C3474      C3475   1.418       .  A
C3475      C3476   1.396       .  A
C3475      N3482   1.447       .  S
C3476      C3477   1.395       .  A
C3476      H3481   1.085       .  S
C3477      C3478   1.414       .  A
C3478      N3479   1.445       .  S
N3479      O3483   1.262       .  A
N3479      O3484   1.263       .  A
N3482      O3485   1.263       .  A
N3482      O3486   1.263       .  A
C3487      C3488   1.418       .  A
C3487      C3492   1.428       .  A
C3487      H3494   1.068       .  S
C3488      C3489   1.430       .  A
C3489      C3490   1.429       .  A
C3489      N3496   1.432       .  S
C3490      C3491   1.409       .  A
C3490      H3495   1.082       .  S
C3491      C3492   1.397       .  A
C3492      N3493   1.434       .  S
N3493      O3497   1.258       .  A
N3493      O3498   1.259       .  A
N3496      O3499   1.262   1_655  A
N3496      O3500   1.261       .  A
C3501      C3502   1.406       .  A
C3501      C3506   1.412       .  A
C3501      H3508   1.075       .  S
C3502      C3503   1.418       .  A
C3503      C3504   1.422       .  A
C3503      N3510   1.435       .  S
C3504      C3505   1.413       .  A
C3504      H3509   1.080       .  S
C3505      C3506   1.415       .  A
C3506      N3507   1.429       .  S
N3507      O3512   1.262       .  A
N3510      O3513   1.262       .  A
N3510      O3514   1.261       .  A
C3515      C3516   1.393       .  A
C3515      C3520   1.417       .  A
C3515      H3522   1.083       .  S
C3516      C3517   1.431       .  A
C3517      C3518   1.416       .  A
C3517      N3524   1.436       .  S
C3518      C3519   1.399       .  A
C3518      H3523   1.076       .  S
C3519      C3520   1.426       .  A
C3520      N3521   1.425       .  S
N3521      O3525   1.260       .  A
N3521      O3526   1.262       .  A
N3524      O3527   1.263       .  A
N3524      O3528   1.262       .  A
C3529      C3530   1.404       .  A
C3529      H3536   1.083       .  S
C3530      C3531   1.424       .  A
C3531      N3538   1.428       .  S
C3532      C3533   1.399       .  A
C3532      H3537   1.083       .  S
C3533      C3534   1.417       .  A
C3534      N3535   1.433       .  S
N3535      O3539   1.257       .  A
N3535      O3540   1.263       .  A
N3538      O3542   1.263       .  A
C3543      C3544   1.410   1_556  A
C3543      H3550   1.080   1_556  S
C3544      C3545   1.433       .  A
C3545      N4062   1.445       .  S
C3546      C3547   1.407       .  A
C3546      H3551   1.074       .  S
C3547      C4058   1.411       .  A
C3548      C4057   1.411       .  A
C3548      N3549   1.443       .  S
N3549      O3553   1.255       .  A
N3549      O4064   1.262       .  A
N3552      C4055   1.445       .  S
N3552      O3555   1.256       .  A
N3552      O4066   1.261       .  A
O3554      N4059   1.262       .  A
O3556      N4062   1.261       .  A
C3557      C3558   1.384       .  A
C3557      C3562   1.410       .  A
C3557      H3564   1.078       .  S
C3558      C4069   1.421   1_554  A
C3559      C4068   1.421       .  A
C3559      C3560   1.415       .  A
C3559      N3566   1.431       .  S
C3560      C3561   1.404       .  A
C3560      H3565   1.083       .  S
C3561      C4072   1.427       .  A
C3562      C4071   1.427   1_554  A
C3562      N3563   1.425       .  S
N3563      O3567   1.262       .  A
N3563      O4078   1.260       .  A
N3566      O3569   1.261       .  A
N3566      O3570   1.263       .  A
O3568      N4073   1.260       .  A
O3571     Co3591   1.970       .  S
O3572     Co3592   1.931       .  S
O3572      C3580   1.270       .  A
O3573     Co3593   1.920       .  S
O3573      C3581   1.281       .  A
O3574     Co3594   1.930       .  S
O3574      C3582   1.276       .  A
O3575     Co3592   2.125       .  S
O3575      C3581   1.309       .  A
O3576     Co3591   2.073       .  S
O3576      C3582   1.291       .  A
O3577     Co3594   2.122       .  S
O3577      C3580   1.306       .  A
O3578     Co3593   1.973       .  S
C3579      C3970   1.433   1_554  S
C3580      C4001   1.518       .  S
C3581      C4054   1.527       .  S
C3582      C4043   1.508       .  S
O3583     Co3591   2.004       .  S
O3583      C3596   1.269       .  A
O3584     Co3592   1.951       .  S
O3584      C3597   1.249       .  A
O3585     Co3593   2.043       .  S
O3585      C3598   1.281       .  A
O3586     Co3594   2.036       .  S
O3586      C3599   1.286       .  A
O3587     Co3592   1.935       .  S
O3587      C3599   1.247       .  A
O3588     Co3591   1.990       .  S
O3588      C3598   1.275       .  A
O3589     Co3594   2.067       .  S
O3589      C3596   1.293       .  A
O3590     Co3593   2.039       .  S
O3590      C3597   1.274       .  A
Co3591     O3595   2.141       .  S
Co3592     O3595   2.051       .  S
Co3593     O3595   1.866       .  S
Co3594     O3595   1.989       .  S
C3596      C4015   1.518       .  S
C3597      C4026   1.513       .  S
C3598      C4068   1.504       .  S
C3599      C3984   1.442       .  S
O3600     Co3620   1.925       .  S
O3600      C3608   1.251       .  A
O3601     Co3621   1.990       .  S
O3601      C3609   1.256       .  A
O3602     Co3622   2.170       .  S
O3602      C3610   1.315       .  A
O3603     Co3623   2.009       .  S
O3603      C3611   1.281       .  A
O3604     Co3621   1.908       .  S
O3604      C3610   1.268       .  A
O3605     Co3620   2.037       .  S
O3605      C3611   1.287       .  A
O3606     Co3623   1.984       .  S
O3606      C3609   1.264       .  A
O3607     Co3622   2.033       .  S
O3607      C3608   1.293       .  A
C3608      C3987   1.437       .  S
C3609      C3889   1.512       .  S
C3610      C3942   1.520       .  S
C3611      C3928   1.527       .  S
O3612     Co3620   2.018       .  S
O3612      C3625   1.271       .  A
O3613     Co3621   2.129       .  S
O3613      C3626   1.309       .  A
O3614     Co3622   2.124       .  S
O3614      C3627   1.307       .  A
O3615     Co3623   1.961       .  S
O3615      C3628   1.276       .  A
O3616     Co3621   2.015       .  S
O3616      C3628   1.298       .  A
O3617     Co3620   1.891       .  S
O3617      C3627   1.278       .  A
O3618     Co3623   1.997       .  S
O3618      C3625   1.264       .  A
O3619     Co3622   1.970       .  S
O3619      C3626   1.277       .  A
Co3620     O3624   1.870       .  S
Co3621     O3624   1.973       .  S
Co3622     O3624   2.050       .  S
Co3623     O3624   1.995       .  S
C3625      C3900   1.502       .  S
C3626      C3917   1.527       .  S
C3627      C3956   1.502       .  S
C3628      C3973   1.433       .  S
O3629     Co3649   1.999       .  S
O3629      C3637   1.281       .  A
O3630     Co3650   1.913       .  S
O3630      C3638   1.244       .  A
O3631     Co3651   2.023       .  S
O3631      C3639   1.271       .  A
O3632     Co3652   2.074       .  S
O3632      C3640   1.293       .  A
O3633     Co3650   1.998       .  S
O3633      C3639   1.262       .  A
O3634     Co3649   1.974       .  S
O3634      C3640   1.261       .  A
O3635     Co3652   2.026       .  S
O3635      C3638   1.276       .  A
O3636     Co3651   2.016       .  S
O3636      C3637   1.278       .  A
C3637      C3959   1.497       .  S
C3638      C3833   1.446       .  S
C3639      C3858   1.523       .  S
C3640      C3875   1.499       .  S
O3641     Co3649   2.129       .  S
O3641      C3654   1.306       .  A
O3642     Co3650   2.103       .  S
O3642      C3655   1.303       .  A
O3643     Co3651   1.980       .  S
O3643      C3656   1.248       .  A
O3644     Co3652   2.135       .  S
O3644      C3657   1.304       .  A
O3645     Co3650   1.932       .  S
O3645      C3657   1.276       .  A
O3646     Co3649   1.906       .  S
O3646      C3656   1.241       .  A
O3647     Co3652   1.900       .  S
O3647      C3654   1.266       .  A
O3648     Co3651   1.922       .  S
O3648      C3655   1.281       .  A
Co3649     O3653   2.109       .  S
Co3650     O3653   1.999       .  S
Co3651     O3653   1.885       .  S
Co3652     O3653   2.013       .  S
C3654      C3931   1.523       .  S
C3655      C3945   1.515       .  S
C3656      C3816   1.423       .  S
C3657      C3847   1.526       .  S
O3658     Co3678   2.016       .  S
O3658      C3666   1.265       .  A
O3659     Co3679   1.914       .  S
O3659      C3667   1.240       .  A
O3660     Co3680   2.017       .  S
O3660      C3668   1.273       .  A
O3661     Co3681   2.003       .  S
O3661      C3669   1.256       .  A
O3662     Co3679   2.045       .  S
O3662      C3668   1.283       .  A
O3663     Co3678   2.011       .  S
O3663      C3669   1.261       .  A
O3664     Co3681   1.931       .  S
O3664      C3667   1.240       .  A
O3665     Co3680   1.989       .  S
O3665      C3666   1.267       .  A
C3666      C4071   1.514       .  S
C3667      C3819   1.401       .  S
C3668      C3788   1.515       .  S
C3669      C3805   1.521       .  S
O3670     Co3678   1.919       .  S
O3670      C3683   1.271       .  A
O3671     Co3679   1.982       .  S
O3671      C3684   1.258       .  A
O3672     Co3680   1.995       .  S
O3673     Co3681   2.064       .  S
O3673      C3686   1.308       .  A
O3674     Co3679   1.893       .  S
O3674      C3686   1.273       .  A
O3675     Co3678   1.965       .  S
O3676     Co3681   2.130       .  S
O3676      C3683   1.310       .  A
O3677     Co3680   2.023       .  S
O3677      C3684   1.266       .  A
Co3678     O3682   1.885       .  S
Co3679     O3682   1.923       .  S
Co3680     O3682   2.110       .  S
Co3681     O3682   2.299       .  S
C3683      C4040   1.523       .  S
C3684      C4057   1.516       .  S
C3685      C3830   1.445       .  S
C3686      C3774   1.515       .  S
O3687     Co3707   1.993       .  S
O3687      C3695   1.274       .  A
O3688     Co3708   1.942       .  S
O3688      C3696   1.249       .  A
O3689     Co3709   2.038   1_554  S
O3690      C3698   1.302   1_545  A
O3691      C3697   1.273       .  A
O3692      C3698   1.258       .  A
O3693     Co3710   1.976       .  S
O3694      C3695   1.289   1_455  A
C3695      C3914   1.538       .  S
C3696      C3760   1.412       .  S
C3697      C3844   1.539       .  S
C3698      C3872   1.534       .  S
O3699      C3712   1.293       .  A
O3700      C3713   1.309       .  A
O3701     Co3709   1.967   1_545  S
O3702      C3715   1.311       .  A
O3703     Co3708   1.907       .  S
O3703      C3715   1.274       .  A
O3704     Co3707   1.929       .  S
O3704      C3714   1.243   1_655  A
O3705      C3712   1.267       .  A
O3706      C3713   1.282       .  A
C3712      C3886   1.505       .  S
C3713      C3903   1.529       .  S
C3715      C3861   1.524       .  S
O3716     Co3736   1.995       .  S
O3716      C3724   1.277       .  A
O3717     Co3737   1.930       .  S
O3717      C3725   1.214       .  A
O3718     Co3738   2.109       .  S
O3718      C3726   1.305       .  A
O3719      C3727   1.293   1_545  A
O3720      C3726   1.277   1_545  A
O3721     Co3736   2.026       .  S
O3721      C3727   1.277       .  A
O3722     Co3739   2.006       .  S
O3723      C3724   1.286       .  A
C3724      C4029   1.520       .  S
C3725      C3749   1.428       .  S
C3726      C3777   1.523       .  S
C3727      C3802   1.536       .  S
O3728      C3741   1.286       .  A
O3729     Co3737   2.098       .  S
O3729      C3742   1.303       .  A
O3730     Co3738   1.947   1_545  S
O3731      C3744   1.278       .  A
O3732     Co3737   2.190       .  S
O3732      C3744   1.328       .  A
O3733     Co3736   1.955       .  S
O3733      C3743   1.258       .  A
O3734     Co3739   2.013       .  S
O3734      C3741   1.268       .  A
O3735      C3742   1.277       .  A
Co3737     O3740   2.023       .  S
C3741      C3998   1.552       .  S
C3742      C4012   1.509       .  S
C3744      C3791   1.501       .  S
C3745      C3746   1.402       .  A
C3745      C3750   1.386       .  A
C3745      H3752   1.082       .  S
C3747      C3748   1.379       .  A
C3747      N3754   1.445       .  S
C3748      H3753   1.072       .  S
C3750      N3751   1.448       .  S
N3751      O3755   1.261       .  A
N3751      O3756   1.262       .  A
N3754      O3757   1.261       .  A
N3754      O3758   1.260       .  A
C3759      C3764   1.377       .  A
C3759      H3766   1.086       .  S
C3761      C3762   1.381       .  A
C3761      N3768   1.437   1_655  S
C3762      H3767   1.084   1_655  S
C3763      C3764   1.401   1_545  A
C3764      N3765   1.442       .  S
N3765      O3769   1.263       .  A
N3765      O3770   1.261       .  A
N3768      O3771   1.259   1_455  A
C3773      C3774   1.404       .  A
C3773      C3778   1.406       .  A
C3773      H3780   1.081       .  S
C3774      C3775   1.410       .  A
C3775      C3776   1.422       .  A
C3775      N3782   1.424       .  S
C3776      C3777   1.416       .  A
C3776      H3781   1.075   1_565  S
C3777      C3778   1.413       .  A
C3778      N3779   1.420       .  S
N3779      O3783   1.260       .  A
N3779      O3784   1.262       .  A
N3782      O3785   1.262       .  A
C3787      C3788   1.399       .  A
C3787      C3792   1.409       .  A
C3787      H3794   1.070       .  S
C3788      C3789   1.420       .  A
C3789      C3790   1.417       .  A
C3789      N3796   1.420       .  S
C3790      C3791   1.400       .  A
C3790      H3795   1.084       .  S
C3791      C3792   1.423       .  A
C3792      N3793   1.437       .  S
N3793      O3797   1.260       .  A
N3796      O3799   1.262       .  A
N3796      O3800   1.260       .  A
C3801      C3802   1.397       .  A
C3801      C3806   1.417       .  A
C3801      H3808   1.058       .  S
C3802      C3803   1.426       .  A
C3803      C3804   1.418       .  A
C3803      N3810   1.419       .  S
C3804      C3805   1.400       .  A
C3804      H3809   1.084       .  S
C3805      C3806   1.427       .  A
C3806      N3807   1.435       .  S
N3807      O3811   1.261       .  A
N3807      O3812   1.260       .  A
N3810      O3814   1.262       .  A
C3815      C3816   1.401       .  A
C3815      C3820   1.374       .  A
C3815      H3822   1.083       .  S
C3816      C3817   1.411       .  A
C3817      C3818   1.384       .  A
C3817      N3824   1.449       .  S
C3818      C3819   1.394       .  A
C3818      H3823   1.081       .  S
C3819      C3820   1.404       .  A
C3820      N3821   1.447       .  S
N3821      O3825   1.262       .  A
N3821      O3826   1.261       .  A
N3824      O3827   1.260       .  A
N3824      O3828   1.262       .  A
C3829      C3830   1.409       .  A
C3829      C3834   1.392       .  A
C3829      H3836   1.068       .  S
C3830      C3831   1.396       .  A
C3831      C3832   1.375       .  A
C3831      N3838   1.432       .  S
C3832      C3833   1.400       .  A
C3832      H3837   1.075       .  S
C3833      C3834   1.389       .  A
C3834      N3835   1.431       .  S
N3835      O3839   1.260       .  A
N3835      O3840   1.262       .  A
N3838      O3841   1.261       .  A
N3838      O3842   1.259       .  A
C3843      C3844   1.412       .  A
C3843      C3848   1.432       .  A
C3844      C3845   1.410       .  A
C3845      C3846   1.413       .  A
C3845      N3852   1.410       .  S
C3846      C3847   1.399       .  A
C3846      H3851   1.082       .  S
C3847      C3848   1.424       .  A
C3848      N3849   1.436       .  S
N3849      O3854   1.262       .  A
N3852      O3855   1.257       .  A
N3852      O3856   1.262       .  A
C3857      C3858   1.412       .  A
C3857      C3862   1.415       .  A
C3857      H3864   1.083       .  S
C3858      C3859   1.434       .  A
C3859      C3860   1.419       .  A
C3859      N3866   1.444       .  S
C3860      C3861   1.404       .  A
C3860      H3865   1.075       .  S
C3861      C3862   1.417       .  A
C3862      N3863   1.427       .  S
N3863      O3867   1.260       .  A
N3863      O3868   1.263       .  A
N3866      O3869   1.258       .  A
N3866      O3870   1.262       .  A
C3871      C3872   1.415       .  A
C3871      C3876   1.426       .  A
C3871      H3878   1.071   1_565  S
C3872      C3873   1.427       .  A
C3873      C3874   1.419       .  A
C3873      N3880   1.432       .  S
C3874      C3875   1.399       .  A
C3874      H3879   1.075       .  S
C3875      C3876   1.395       .  A
C3876      N3877   1.433       .  S
N3877      O3881   1.256       .  A
N3877      O3882   1.263       .  A
N3880      O3883   1.262       .  A
N3880      O3884   1.263       .  A
C3885      C3886   1.397       .  A
C3885      C3890   1.410       .  A
C3885      H3892   1.081       .  S
C3886      C3887   1.426       .  A
C3887      C3888   1.422       .  A
C3887      N3894   1.445   1_655  S
C3888      C3889   1.409       .  A
C3888      H3893   1.081       .  S
C3889      C3890   1.413       .  A
C3890      N3891   1.431       .  S
N3891      O3896   1.260       .  A
N3894      O3898   1.259       .  A
C3899      C3900   1.408       .  A
C3899      C3904   1.423       .  A
C3899      H3906   1.083       .  S
C3900      C3901   1.411       .  A
C3901      C3902   1.423       .  A
C3901      N3908   1.445       .  S
C3902      C3903   1.414       .  A
C3902      H3907   1.071       .  S
C3903      C3904   1.422       .  A
C3904      N3905   1.437       .  S
N3905      O3909   1.263       .  A
N3905      O3910   1.260       .  A
N3908      O3911   1.262       .  A
N3908      O3912   1.258       .  A
C3913      C3914   1.409       .  A
C3913      C3918   1.415       .  A
C3913      H3920   1.076   1_655  S
C3914      C3915   1.434       .  A
C3915      C3916   1.430       .  A
C3915      N3922   1.436       .  S
C3916      C3917   1.409       .  A
C3916      H3921   1.083       .  S
C3917      C3918   1.415       .  A
C3918      N3919   1.427       .  S
N3919      O3924   1.261       .  A
N3922      O3925   1.261       .  A
N3922      O3926   1.262       .  A
C3927      C3932   1.416   1_545  A
C3927      H3934   1.081       .  S
C3928      C3929   1.418       .  A
C3929      C3930   1.422       .  A
C3929      N3936   1.430       .  S
C3930      H3935   1.078       .  S
C3931      C3932   1.406       .  A
C3932      N3933   1.424       .  S
N3933      O3937   1.258       .  A
N3933      O3938   1.262       .  A
N3936      O3939   1.262       .  A
N3936      O3940   1.260       .  A
C3941      C3942   1.411       .  A
C3941      H3948   1.083       .  S
C3943      C3944   1.404       .  A
C3943      N3950   1.421       .  S
C3944      C3945   1.403       .  A
C3944      H3949   1.084       .  S
C3945      C3946   1.428       .  A
C3946      N3947   1.436       .  S
N3947      O3952   1.261       .  A
N3950      O3953   1.261       .  A
N3950      O3954   1.260       .  A
C3955      C3956   1.404       .  A
C3955      C3960   1.408       .  A
C3955      H3962   1.083       .  S
C3956      C3957   1.419       .  A
C3957      C3958   1.420       .  A
C3957      N3964   1.438       .  S
C3958      C3959   1.411       .  A
C3958      H3963   1.082       .  S
C3959      C3960   1.409       .  A
C3960      N3961   1.434       .  S
N3961      O3965   1.261       .  A
N3961      O3966   1.262       .  A
N3964      O3967   1.263       .  A
N3964      O3968   1.262       .  A
C3969      C3970   1.397       .  A
C3969      C3974   1.390       .  A
C3969      H3976   1.082       .  S
C3970      C3971   1.408       .  A
C3971      C3972   1.384       .  A
C3972      C3973   1.397       .  A
C3972      H3977   1.080       .  S
C3973      C3974   1.408       .  A
C3974      N3975   1.444       .  S
N3975      O3979   1.262       .  A
N3975      O3980   1.261       .  A
N3978      O3981   1.259       .  A
N3978      O3982   1.262       .  A
C3983      C3984   1.396       .  A
C3983      C3988   1.397       .  A
C3983      H3990   1.084       .  S
C3984      C3985   1.418       .  A
C3985      C3986   1.396       .  A
C3985      N3992   1.447       .  S
C3986      C3987   1.395       .  A
C3986      H3991   1.085       .  S
C3987      C3988   1.414       .  A
C3988      N3989   1.445       .  S
N3989      O3993   1.262       .  A
N3989      O3994   1.263       .  A
N3992      O3995   1.263       .  A
N3992      O3996   1.263       .  A
C3997      C3998   1.418       .  A
C3997      C4002   1.428       .  A
C3997      H4004   1.068       .  S
C3998      C3999   1.430       .  A
C3999      C4000   1.429       .  A
C3999      N4006   1.432       .  S
C4000      C4001   1.409       .  A
C4000      H4005   1.082       .  S
C4001      C4002   1.397       .  A
C4002      N4003   1.434       .  S
N4003      O4007   1.258       .  A
N4003      O4008   1.259       .  A
N4006      O4009   1.262   1_655  A
N4006      O4010   1.261       .  A
C4011      C4012   1.406       .  A
C4011      C4016   1.412       .  A
C4011      H4018   1.075       .  S
C4012      C4013   1.418       .  A
C4013      C4014   1.422       .  A
C4013      N4020   1.435       .  S
C4014      C4015   1.413       .  A
C4014      H4019   1.080       .  S
C4015      C4016   1.415       .  A
C4016      N4017   1.429       .  S
N4017      O4022   1.262       .  A
N4020      O4023   1.262       .  A
N4020      O4024   1.261       .  A
C4025      C4026   1.393       .  A
C4025      C4030   1.417       .  A
C4025      H4032   1.083       .  S
C4026      C4027   1.431       .  A
C4027      C4028   1.416       .  A
C4027      N4034   1.436       .  S
C4028      C4029   1.399       .  A
C4028      H4033   1.076       .  S
C4029      C4030   1.426       .  A
C4030      N4031   1.425       .  S
N4031      O4035   1.260       .  A
N4031      O4036   1.262       .  A
N4034      O4037   1.263       .  A
N4034      O4038   1.262       .  A
C4039      C4040   1.404       .  A
C4039      H4046   1.083       .  S
C4040      C4041   1.424       .  A
C4041      N4048   1.428       .  S
C4042      C4043   1.399       .  A
C4042      H4047   1.083       .  S
C4043      C4044   1.417       .  A
C4044      N4045   1.433       .  S
N4045      O4049   1.257       .  A
N4045      O4050   1.263       .  A
N4048      O4052   1.263       .  A
C4053      C4054   1.410       .  A
C4053      H4060   1.080       .  S
C4054      C4055   1.433       .  A
C4056      C4057   1.407       .  A
C4056      H4061   1.074       .  S
C4058      N4059   1.443       .  S
N4059      O4063   1.255       .  A
N4062      O4065   1.256       .  A
C4067      C4068   1.384       .  A
C4067      C4072   1.410       .  A
C4067      H4074   1.078       .  S
C4069      C4070   1.415       .  A
C4069      N4076   1.431       .  S
C4070      C4071   1.404       .  A
C4070      H4075   1.083       .  S
C4072      N4073   1.425       .  S
N4073      O4077   1.262       .  A
N4076      O4079   1.261   1_556  A
N4076      O4080   1.263       .  A
