geometry optimzed in LAMMPS
_audit_creation_date              2020-11-30 
_audit_creation_method            'lammps2cif' 
_symmetry_space_group_name_H-M    'P1' 
_symmetry_Int_Tables_number       1 
_symmetry_cell_setting            triclinic 
loop_ 
_symmetry_equiv_pos_as_xyz 
  x,y,z 
_cell_length_a                    40.4504652 
_cell_length_b                    43.85877615458265 
_cell_length_c                    43.64078655417501 
_cell_angle_alpha                 90.19545482044566 
_cell_angle_beta                  89.82172049050617 
_cell_angle_gamma                 89.06987479006241 
loop_ 
_atom_site_label 
_atom_site_type_symbol 
_atom_site_fract_x 
_atom_site_fract_y 
_atom_site_fract_z 
_atom_site_charge 
Zr1        Zr  0.80547724  0.77675802  0.77323612     2.17500
O2          O  0.85770430  0.80307401  0.76647038    -0.51700
O3          O  0.78785066  0.79438539  0.82404698    -0.74900
O4          O  0.80179949  0.83135000  0.76313381    -0.81600
O5          O  0.84817788  0.70424673  0.80108028    -0.83400
O6          O  0.76186702  0.83961075  0.72728506    -0.79000
O7          O  0.84871385  0.75606453  0.80534458    -0.90600
O8          O  0.74119199  0.76943952  0.83707036    -0.76600
O9          O  0.74720609  0.78442407  0.77190556    -0.86100
O10         O  0.78316692  0.73234643  0.79640155    -0.85800
O11         O  0.79257335  0.78171581  0.71979211    -0.72500
O12         O  0.82517086  0.73356894  0.74360610    -0.84700
Zr13       Zr  0.72855127  0.70421739  0.71151016     2.26400
Zr14       Zr  0.73376579  0.79023043  0.71867255     2.06300
Zr15       Zr  0.80140804  0.68934113  0.76675744     2.10000
Zr16       Zr  0.72512567  0.73940884  0.79438004     1.78800
O17         O  0.84623832  0.65841692  0.74499239    -0.93500
O18         O  0.67768507  0.77191656  0.80731295    -0.41300
O19         O  0.74243576  0.69655790  0.76447081    -0.77900
O20         O  0.70985273  0.74633791  0.74243206    -0.96600
O21         O  0.75188020  0.74752617  0.68783666    -0.89900
O22         O  0.78674384  0.69414903  0.71346400    -0.92800
C23         C  0.76416004  0.78815547  0.84262384     1.01000
C24         C  0.85997510  0.72945111  0.81189703     1.13900
C25         C  0.78540869  0.84888288  0.74488552     1.04700
O26         O  0.69389958  0.82776513  0.73806632    -0.94900
O27         O  0.67944399  0.77803198  0.69559475    -0.90700
O28         O  0.67828483  0.72660674  0.69093602    -0.83800
C29         C  0.66484643  0.75313013  0.68791991     1.11300
O30         O  0.86333172  0.76221096  0.68491986    -0.96900
Zr31       Zr  0.80996060  0.73791252  0.69050078     1.88900
O32         O  0.74136544  0.68909278  0.65927466    -0.73500
O33         O  0.73422107  0.81318625  0.66794811    -0.52800
O34         O  0.81235680  0.77261170  0.64717182    -0.97500
O35         O  0.85495760  0.70198866  0.67891089    -0.54700
O36         O  0.78979205  0.71006528  0.64618376    -0.74100
C37         C  0.76440609  0.69400299  0.63988904     0.98300
O38         O  0.67586529  0.67804159  0.70734976    -0.62900
O39         O  0.80041080  0.65693777  0.81198790    -0.57700
O40         O  0.73152933  0.65080972  0.72257797    -0.94400
O41         O  0.77071391  0.64128283  0.75865936    -0.92800
O42         O  0.72986401  0.70605382  0.83870948    -0.93100
O43         O  0.67501451  0.70985063  0.79982213    -0.91900
C44         C  0.74663724  0.63305931  0.74113018     1.17100
H45         H  0.79016028  0.73026440  0.81744708     0.33100
H46         H  0.68605855  0.74790355  0.74315593     0.43900
H47         H  0.79252640  0.67577859  0.70226491     0.37500
H48         H  0.80391447  0.79893980  0.71127065     0.33900
H49         H  0.67226848  0.76665818  0.82878353     0.25700
H50         H  0.72986884  0.79614213  0.65365453     0.31700
H51         H  0.79448672  0.78781457  0.65107075     0.37600
H52         H  0.73611878  0.68586796  0.83009125     0.32000
H53         H  0.82210443  0.64614903  0.81191116     0.30900
H54         H  0.86669473  0.66834324  0.75200541     0.32600
H55         H  0.84417173  0.68256905  0.67365418     0.31600
H56         H  0.67797241  0.69256882  0.78536412     0.35600
H57         H  0.67180581  0.66863533  0.72758653     0.28300
H58         H  0.86457770  0.80955796  0.78721930     0.32500
H59         H  0.86603962  0.77406200  0.70406037     0.35400
H60         H  0.80139188  0.67111123  0.82965147     0.28000
H61         H  0.67947535  0.66075994  0.69299707     0.40900
H62         H  0.69348243  0.82449171  0.76049034     0.30900
H63         H  0.68664943  0.79275323  0.80861000     0.38500
H64         H  0.86575195  0.69807413  0.69886865     0.30400
H65         H  0.71381565  0.82594492  0.66731578     0.30400
H66         H  0.87398826  0.78706176  0.76034918     0.30700
C67         C  0.88703219  0.99997516  0.78465150     0.86200
C68         C  0.86712039  0.97006003  0.78253117    -0.54100
C69         C  0.84630559  0.96779020  0.75785636     0.09100
C70         C  0.84951649  0.99524806  0.73575310     0.20000
C71         C  0.90635400  0.99899954  0.75444241    -0.54800
C72         C  0.88724027  0.99700900  0.72887317     0.09200
C73         C  0.86119244  0.02571916  0.78104510    -0.54300
C74         C  0.84123238  0.02348068  0.75605035     0.09800
H75         H  0.87004035  0.95150402  0.79870172     0.14300
H76         H  0.83396107  0.99373350  0.71490481     0.00000
H77         H  0.93292479  0.99820536  0.75282001     0.14600
H78         H  0.85978351  0.04504321  0.79665872     0.14400
Zr79       Zr  0.78404530  0.21258387  0.70668462     2.17500
O80         O  0.84077771  0.19403991  0.69992145    -0.51700
O81         O  0.77721208  0.20123320  0.65199872    -0.74900
O82         O  0.78820357  0.15800001  0.71890200    -0.81600
O83         O  0.82108504  0.29320588  0.69674396    -0.83400
O84         O  0.74467122  0.14514694  0.74881844    -0.79000
O85         O  0.83301677  0.24238822  0.69703331    -0.90600
O86         O  0.72495918  0.21570033  0.63924100    -0.76600
O87         O  0.72755784  0.19773046  0.70616651    -0.86100
O88         O  0.75490855  0.25383894  0.68262844    -0.85800
O89         O  0.76937482  0.20536435  0.75971331    -0.72500
O90         O  0.79294291  0.25704437  0.73739410    -0.84700
Zr91       Zr  0.69258259  0.27781770  0.76384178     2.26400
Zr92       Zr  0.71191029  0.19202924  0.75896974     2.06300
Zr93       Zr  0.76391069  0.29837567  0.71325079     2.10000
Zr94       Zr  0.69838399  0.23912001  0.68272037     1.78800
O95         O  0.79440612  0.33992917  0.73640367    -0.93500
O96         O  0.66220702  0.19763163  0.66814607    -0.41300
O97         O  0.70694310  0.28479574  0.71141654    -0.77900
O98         O  0.68122769  0.23269953  0.73469691    -0.96600
O99         O  0.72097756  0.23703437  0.78873951    -0.89900
O100        O  0.74880148  0.29224829  0.76573970    -0.92800
C101        C  0.75364193  0.20486549  0.63259066     1.01000
C102        C  0.84101790  0.27037550  0.69357104     1.13900
C103        C  0.77161239  0.13835259  0.73419016     1.04700
O104        O  0.66982642  0.15922910  0.73748466    -0.94900
O105        O  0.66452155  0.19972272  0.79391719    -0.90700
O106        O  0.65234986  0.25033847  0.79215975    -0.83800
C107        C  0.64716929  0.22338671  0.80182996     1.11300
O108        O  0.83298514  0.23157755  0.79960519    -0.96900
Zr109      Zr  0.77724373  0.25065220  0.78954798     1.88900
O110        O  0.70169780  0.29728321  0.81497710    -0.73500
O111        O  0.71696897  0.16275738  0.80612222    -0.52800
O112        O  0.77840874  0.21471493  0.83195058    -0.97500
O113        O  0.81819372  0.28891267  0.80194558    -0.54700
O114        O  0.75085303  0.27772187  0.83148365    -0.74100
C115        C  0.72416465  0.29336766  0.83523238     0.98300
O116        O  0.63767377  0.30167833  0.76185208    -0.62900
O117        O  0.76690672  0.32006977  0.66203216    -0.57700
O118        O  0.68703471  0.33095969  0.75001512    -0.94400
O119        O  0.72870861  0.34416706  0.71834039    -0.92800
O120        O  0.69083808  0.27603687  0.64162153    -0.93100
O121        O  0.64129965  0.25608547  0.67554635    -0.91900
C122        C  0.70216703  0.35052160  0.73352978     1.17100
H123        H  0.76306825  0.25769189  0.66221505     0.33100
H124        H  0.65786292  0.22849048  0.73520174     0.43900
H125        H  0.75156209  0.31108466  0.77691013     0.37500
H126        H  0.78264008  0.18930280  0.76879744     0.33900
H127        H  0.67647282  0.17908292  0.66859740     0.25700
H128        H  0.70696103  0.14283306  0.80141904     0.31700
H129        H  0.75494983  0.21238149  0.83791293     0.37600
H130        H  0.71172397  0.27524187  0.62975400     0.32000
H131        H  0.74370471  0.32103514  0.65493147     0.30900
H132        H  0.80546473  0.35008121  0.71902640     0.32600
H133        H  0.80750562  0.30241116  0.81740320     0.31600
H134        H  0.63652882  0.26949332  0.69337136     0.35600
H135        H  0.62259192  0.28568531  0.75450372     0.28300
H136        H  0.84109441  0.18315763  0.68003081     0.32500
H137        H  0.84166355  0.22542922  0.77922228     0.35400
H138        H  0.77294481  0.34160930  0.66535156     0.28000
H139        H  0.63118450  0.30549707  0.78345436     0.40900
H140        H  0.67526115  0.13866956  0.74550610     0.30900
H141        H  0.64700114  0.19524859  0.68576844     0.38500
H142        H  0.81969210  0.30162801  0.78331397     0.30400
H143        H  0.74090209  0.15823265  0.80830144     0.30400
H144        H  0.84498420  0.17838928  0.71578458     0.30700
C145        C  0.65781372  0.52976672  0.74123215     0.86200
C146        C  0.63636671  0.53203377  0.77043109    -0.54100
C147        C  0.61447713  0.50913452  0.77423428     0.09100
C148        C  0.61282214  0.48747751  0.74602430     0.20000
C149        C  0.67158273  0.49695415  0.74082961    -0.54800
C150        C  0.64847468  0.47466153  0.74281582     0.09200
C151        C  0.63133010  0.53077072  0.71570592    -0.54300
C152        C  0.60771062  0.50858149  0.71783238     0.09800
H153        H  0.63807496  0.55020738  0.78724347     0.14300
H154        H  0.59362331  0.46988532  0.74746723     0.00000
H155        H  0.69783403  0.49178082  0.73847598     0.14600
H156        H  0.63145146  0.54728948  0.69730833     0.14400
C157        C  0.75755334  0.64741269  0.45857032     0.86200
C158        C  0.72186941  0.63690365  0.46128245    -0.54100
C159        C  0.71516382  0.62031951  0.48660613     0.09100
C160        C  0.74535220  0.61483400  0.50749108     0.20000
C161        C  0.76493402  0.66384163  0.48902534    -0.54800
C162        C  0.75856027  0.64693144  0.51467328     0.09200
C163        C  0.77886459  0.61784820  0.46144269    -0.54300
C164        C  0.77202814  0.60048512  0.48660300     0.09800
H165        H  0.70334716  0.64151602  0.44381845     0.14300
H166        H  0.73985938  0.60096335  0.52808281     0.00000
H167        H  0.77369600  0.68679770  0.49036843     0.14600
H168        H  0.79925003  0.61189522  0.44624073     0.14400
Zr169      Zr  0.71097335  0.79259059  0.20878905     2.17500
O170        O  0.65595557  0.81624459  0.20779683    -0.51700
O171        O  0.72599477  0.80876227  0.15717923    -0.74900
O172        O  0.71112278  0.84618521  0.22256783    -0.81600
O173        O  0.66787691  0.71970838  0.18694548    -0.83400
O174        O  0.75018203  0.85505659  0.25857614    -0.79000
O175        O  0.66389625  0.77122537  0.18304359    -0.90600
O176        O  0.77995172  0.79637949  0.15047100    -0.76600
O177        O  0.76868405  0.80216942  0.21100198    -0.86100
O178        O  0.73634048  0.74975799  0.18417765    -0.85800
O179        O  0.72328039  0.79660772  0.26252634    -0.72500
O180        O  0.69398031  0.74888981  0.23750799    -0.84700
Zr181      Zr  0.79162222  0.71889697  0.26778448     2.26400
Zr182      Zr  0.78166533  0.80597455  0.26450779     2.06300
Zr183      Zr  0.72001562  0.70601014  0.21274542     2.10000
Zr184      Zr  0.79411898  0.75853336  0.18744700     1.78800
O185        O  0.68013581  0.67076146  0.23394867    -0.93500
O186        O  0.84475170  0.78689118  0.17982700    -0.41300
O187        O  0.77834608  0.71428848  0.21480652    -0.77900
O188        O  0.80914012  0.76306791  0.23992541    -0.96600
O189        O  0.76632333  0.76146877  0.29309364    -0.89900
O190        O  0.73397988  0.70899201  0.26616036    -0.92800
C191        C  0.75289286  0.80866725  0.14150866     1.01000
C192        C  0.65288255  0.74443496  0.17836830     1.13900
C193        C  0.72526708  0.86368995  0.24197692     1.04700
O194        O  0.82209226  0.84070982  0.24337126    -0.94900
O195        O  0.83295427  0.79323107  0.29300118    -0.90700
O196        O  0.83946101  0.74161711  0.29085802    -0.83800
C197        C  0.84908681  0.76816227  0.29853423     1.11300
O198        O  0.65455700  0.77600088  0.29818569    -0.96900
Zr199      Zr  0.70872846  0.75206208  0.29062747     1.88900
O200        O  0.77797531  0.70074447  0.31827722    -0.73500
O201        O  0.77942025  0.83117553  0.31431547    -0.52800
O202        O  0.70699193  0.78776148  0.33352836    -0.97500
O203        O  0.66573164  0.71542212  0.30194790    -0.54700
O204        O  0.72979282  0.72286719  0.33352470    -0.74100
C205        C  0.75509170  0.70550299  0.33798005     0.98300
O206        O  0.83774703  0.68332452  0.27652475    -0.62900
O207        O  0.72119028  0.68080268  0.16286971    -0.57700
O208        O  0.79511406  0.66818609  0.24584857    -0.94400
O209        O  0.75137510  0.65764735  0.21548925    -0.92800
O210        O  0.79088225  0.73003387  0.13947581    -0.93100
O211        O  0.84212878  0.72569449  0.17762350    -0.91900
C212        C  0.77874583  0.65009742  0.22863025     1.17100
H213        H  0.72916556  0.74817954  0.16315471     0.33100
H214        H  0.83283437  0.76528130  0.24010987     0.43900
H215        H  0.72894823  0.69017159  0.27648344     0.37500
H216        H  0.71082867  0.81321689  0.27174354     0.33900
H217        H  0.84915357  0.78550056  0.15752124     0.25700
H218        H  0.79125698  0.85052949  0.31133565     0.31700
H219        H  0.72837544  0.78471644  0.34416095     0.37600
H220        H  0.77509303  0.74151436  0.12642586     0.32000
H221        H  0.70396178  0.66507838  0.16419390     0.30900
H222        H  0.67150970  0.65965471  0.21595504     0.32600
H223        H  0.67760635  0.69615232  0.30689040     0.31600
H224        H  0.85222053  0.72245704  0.19801986     0.35600
H225        H  0.85682152  0.69138377  0.26502749     0.28300
H226        H  0.65796061  0.83582174  0.19676599     0.32500
H227        H  0.65303171  0.79183546  0.28211535     0.35400
H228        H  0.71220992  0.69598974  0.14823572     0.28000
H229        H  0.84374727  0.68521161  0.29842835     0.40900
H230        H  0.82153114  0.85850632  0.25739278     0.30900
H231        H  0.83819799  0.80847662  0.18329994     0.38500
H232        H  0.65515260  0.71142730  0.28193931     0.30400
H233        H  0.75596117  0.83740564  0.31709415     0.30400
H234        H  0.65090135  0.82178997  0.22932943     0.30700
C235        C  0.75288139  0.84811289  0.96080236     0.86200
C236        C  0.78397369  0.86783684  0.96157505    -0.54100
C237        C  0.78499125  0.88780393  0.98539454     0.09100
C238        C  0.75642071  0.88456473  0.00813323     0.20000
C239        C  0.75496950  0.83137475  0.99175140    -0.54800
C240        C  0.75667019  0.85062951  0.01644257     0.09200
C241        C  0.72340530  0.87032687  0.96429970    -0.54300
C242        C  0.72531004  0.88915925  0.98901393     0.09800
H243        H  0.80343018  0.86647568  0.94436411     0.14300
H244        H  0.75763158  0.90010492  0.02824389     0.00000
H245        H  0.75532938  0.80704506  0.99452551     0.14600
H246        H  0.70194250  0.87000714  0.94939399     0.14400
C247        C  0.47891873  0.71907470  0.09243100     0.86200
C248        C  0.45233331  0.72924303  0.11526333    -0.54100
C249        C  0.46100883  0.75296912  0.13350079     0.09100
C250        C  0.49593500  0.76503728  0.12671422     0.20000
C251        C  0.48478915  0.74909881  0.07468181    -0.54800
C252        C  0.49427565  0.77383553  0.09213720     0.09200
C253        C  0.51084386  0.71387033  0.11035919    -0.54300
C254        C  0.51975877  0.73716410  0.12871846     0.09800
H255        H  0.42690691  0.72215565  0.11372211     0.14300
H256        H  0.50344070  0.78215910  0.14331890     0.00000
H257        H  0.47745429  0.75170533  0.05105905     0.14600
H258        H  0.52678234  0.69411433  0.10633657     0.14400
C259        C  0.34967103  0.96891168  0.75497080     0.86200
C260        C  0.36740048  0.97039577  0.78594346    -0.54100
C261        C  0.38593781  0.99564333  0.79120162     0.09100
C262        C  0.38403802  0.01854158  0.76365861     0.20000
C263        C  0.32917386  0.99883105  0.75348914    -0.54800
C264        C  0.34628669  0.02471132  0.75927373     0.09200
C265        C  0.37604044  0.97436308  0.73037197    -0.54300
C266        C  0.39426028  0.00000454  0.73434846     0.09800
H267        H  0.36498381  0.95245066  0.80288525     0.14300
H268        H  0.39880207  0.03933969  0.76637683     0.00000
H269        H  0.30366869  0.00054635  0.74621126     0.14600
H270        H  0.37766454  0.96112881  0.70943100     0.14400
C271        C  0.72877112  0.34139911  0.95798192     0.86200
C272        C  0.75855471  0.36300759  0.95811294    -0.54100
C273        C  0.76707973  0.37387697  0.98637971     0.09100
C274        C  0.74352043  0.36330635  0.01212451     0.20000
C275        C  0.73882659  0.31695931  0.98175173    -0.54800
C276        C  0.74565087  0.32811235  0.01024875     0.09200
C277        C  0.70094229  0.36014308  0.97285684    -0.54300
C278        C  0.70842644  0.37173618  0.00093445     0.09800
H279        H  0.77273271  0.36838077  0.93773617     0.14300
H280        H  0.74870994  0.37277024  0.03517292     0.00000
H281        H  0.74056226  0.29280056  0.97685158     0.14600
H282        H  0.67739625  0.36463395  0.96168270     0.14400
C283        C  0.24977451  0.65029029  0.02091698     0.86200
C284        C  0.28038585  0.62999879  0.01298166    -0.54100
C285        C  0.27860103  0.61542524  0.98546991     0.09100
C286        C  0.24653617  0.62232930  0.96798581     0.20000
C287        C  0.24749351  0.67181448  0.99321045    -0.54800
C288        C  0.24599474  0.65761549  0.96522932     0.09200
C289        C  0.22025641  0.62911008  0.01787307    -0.54300
C290        C  0.21783301  0.61504854  0.99016561     0.09800
H291        H  0.30276976  0.62841870  0.02649263     0.14300
H292        H  0.24563996  0.60944700  0.94612628     0.00000
H293        H  0.24590756  0.69608624  0.99624571     0.14600
H294        H  0.20203734  0.62624160  0.03594139     0.14400
C295        C  0.14856344  0.52746272  0.74875874     0.86200
C296        C  0.12555472  0.52501797  0.77636288    -0.54100
C297        C  0.10676316  0.49963889  0.77702217     0.09100
C298        C  0.11319064  0.47773376  0.74945902     0.20000
C299        C  0.16899507  0.49726327  0.75090635    -0.54800
C300        C  0.15102383  0.47063105  0.75064688     0.09200
C301        C  0.12758021  0.52242294  0.72011039    -0.54300
C302        C  0.10820875  0.49728275  0.72031977     0.09800
H303        H  0.12653680  0.54057363  0.79571983     0.14300
H304        H  0.09685731  0.45817278  0.74914161     0.00000
H305        H  0.19539398  0.49653950  0.75394617     0.14600
H306        H  0.12954406  0.53687544  0.70002658     0.14400
C307        C  0.72764092  0.17404147  0.45159483     0.86200
C308        C  0.69625736  0.15792463  0.46395427    -0.54100
C309        C  0.70151164  0.14084790  0.48980853     0.09100
C310        C  0.73752464  0.14056286  0.50046906     0.20000
C311        C  0.74120905  0.19127955  0.47938863    -0.54800
C312        C  0.74545621  0.17458362  0.50531851     0.09200
C313        C  0.75244543  0.14733277  0.44694590    -0.54300
C314        C  0.75826624  0.13026944  0.47243811     0.09800
H315        H  0.67226589  0.15804746  0.45362028     0.14300
H316        H  0.74120598  0.12577567  0.52077374     0.00000
H317        H  0.74794258  0.21481692  0.47754940     0.14600
H318        H  0.76646435  0.14379248  0.42591681     0.14400
C319        C  0.00572532  0.77433688  0.40973405     0.86200
C320        C  0.97640769  0.77924324  0.38833828    -0.54100
C321        C  0.96886930  0.75537318  0.37016444     0.09100
C322        C  0.99330539  0.72791002  0.37353837     0.20000
C323        C  0.99787420  0.74410990  0.42693988    -0.54800
C324        C  0.99183888  0.71948962  0.40793728     0.09200
C325        C  0.03487690  0.76436869  0.38944480    -0.54300
C326        C  0.02843813  0.74084566  0.37002243     0.09800
H327        H  0.96135785  0.80003397  0.38865110     0.14300
H328        H  0.98846782  0.70867670  0.35768850     0.00000
H329        H  0.99993436  0.74130451  0.45150909     0.14600
H330        H  0.05921070  0.77405188  0.39091229     0.14400
Zr331      Zr  0.28788113  0.72669610  0.21245873     2.17500
O332        O  0.34314492  0.70506564  0.20363355    -0.51700
O333        O  0.27823792  0.70924275  0.16012269    -0.74900
O334        O  0.29460725  0.67352375  0.22889430    -0.81600
O335        O  0.32260934  0.80741518  0.19523220    -0.83400
O336        O  0.25234634  0.66012342  0.26008497    -0.79000
O337        O  0.33418548  0.75647734  0.19647140    -0.90600
O338        O  0.22688997  0.72540290  0.14717519    -0.76600
O339        O  0.23147938  0.71240644  0.21179367    -0.86100
O340        O  0.25947636  0.76846119  0.18850881    -0.85800
O341        O  0.27411672  0.72018935  0.26557042    -0.72500
O342        O  0.29837703  0.77161543  0.24241463    -0.84700
Zr343      Zr  0.19743665  0.79234828  0.27181037     2.26400
Zr344      Zr  0.21696177  0.70643482  0.26481044     2.06300
Zr345      Zr  0.26852592  0.81328880  0.21924437     2.10000
Zr346      Zr  0.20302792  0.75458293  0.18886759     1.78800
O347        O  0.30662199  0.85055209  0.23972843    -0.93500
O348        O  0.16191924  0.71643873  0.17661036    -0.41300
O349        O  0.21149050  0.79973203  0.21884613    -0.77900
O350        O  0.18716161  0.74785566  0.24092410    -0.96600
O351        O  0.22645339  0.75101554  0.29570192    -0.89900
O352        O  0.25381884  0.80672694  0.27187848    -0.92800
C353        C  0.25408184  0.71117928  0.14124359     1.01000
C354        C  0.34169035  0.78414390  0.19085071     1.13900
C355        C  0.27977209  0.65411229  0.24595320     1.04700
O356        O  0.18172697  0.66900768  0.24043457    -0.94900
O357        O  0.16304794  0.71315802  0.29007088    -0.90700
O358        O  0.15124303  0.76410020  0.29246675    -0.83800
C359        C  0.14394802  0.73604302  0.29672478     1.11300
O360        O  0.33895785  0.74488629  0.30053025    -0.96900
Zr361      Zr  0.28298774  0.76525012  0.29475462     1.88900
O362        O  0.20740743  0.80766321  0.32476808    -0.73500
O363        O  0.21851397  0.67865853  0.31303750    -0.52800
O364        O  0.28861495  0.73060342  0.33797579    -0.97500
O365        O  0.32176884  0.80561394  0.30643657    -0.54700
O366        O  0.25873380  0.79131753  0.33789244    -0.74100
C367        C  0.23141703  0.80522065  0.34380298     0.98300
O368        O  0.14559310  0.82150075  0.27005752    -0.62900
O369        O  0.26286786  0.83957026  0.17029134    -0.57700
O370        O  0.19448689  0.84687335  0.26130847    -0.94400
O371        O  0.23732759  0.86072425  0.23093446    -0.92800
O372        O  0.19951760  0.78844210  0.14483018    -0.93100
O373        O  0.14723356  0.77538779  0.18282558    -0.91900
C374        C  0.21093519  0.86694403  0.24651023     1.17100
H375        H  0.26748906  0.77130435  0.16785931     0.33100
H376        H  0.16394484  0.74344627  0.24009975     0.43900
H377        H  0.25688189  0.82539993  0.28325852     0.37500
H378        H  0.28771700  0.70478193  0.27527939     0.33900
H379        H  0.15634190  0.72010728  0.15483477     0.25700
H380        H  0.21185764  0.69383249  0.32882974     0.31700
H381        H  0.26564048  0.72645993  0.34442990     0.37600
H382        H  0.19240583  0.77527755  0.12766856     0.32000
H383        H  0.25896982  0.82339844  0.15492651     0.30900
H384        H  0.30915481  0.86564002  0.22309539     0.32600
H385        H  0.30880142  0.82138815  0.31771265     0.31600
H386        H  0.14294166  0.78707158  0.20191594     0.35600
H387        H  0.13142125  0.81029465  0.25557938     0.28300
H388        H  0.34019028  0.68581520  0.19212973     0.32500
H389        H  0.34683122  0.74132589  0.27928669     0.35400
H390        H  0.24153499  0.85088259  0.17161987     0.28000
H391        H  0.13495555  0.81932950  0.29037937     0.40900
H392        H  0.19482421  0.66110538  0.22283864     0.30900
H393        H  0.17431847  0.69679176  0.17642026     0.38500
H394        H  0.32658022  0.81505379  0.28638631     0.30400
H395        H  0.19971834  0.66451121  0.31187874     0.30400
H396        H  0.35145680  0.69881863  0.22403221     0.30700
C397        C  0.23502086  0.86343649  0.46485323     0.86200
C398        C  0.26737710  0.88067680  0.46675552    -0.54100
C399        C  0.27303649  0.89525508  0.49377048     0.09100
C400        C  0.24359809  0.89251421  0.51671872     0.20000
C401        C  0.23381165  0.84296939  0.49320987    -0.54800
C402        C  0.23832232  0.85789590  0.52024283     0.09200
C403        C  0.20795834  0.88756721  0.47215839    -0.54300
C404        C  0.21238546  0.90328782  0.49893821     0.09800
H405        H  0.28540045  0.88015868  0.44821192     0.14300
H406        H  0.24704375  0.90400759  0.53905695     0.00000
H407        H  0.23015062  0.81866863  0.49196260     0.14600
H408        H  0.18528422  0.89028848  0.45920094     0.14400
C409        C  0.88559265  0.50711831  0.27306651     0.86200
C410        C  0.86520656  0.47845288  0.26922693    -0.54100
C411        C  0.84804290  0.47619604  0.24261328     0.09100
C412        C  0.85288227  0.50433359  0.22131648     0.20000
C413        C  0.90776191  0.50742608  0.24374401    -0.54800
C414        C  0.89077901  0.50583747  0.21633015     0.09200
C415        C  0.86235763  0.53431739  0.26748031    -0.54300
C416        C  0.84551605  0.53366569  0.24055177     0.09800
H417        H  0.86527930  0.46044935  0.28629991     0.14300
H418        H  0.83810897  0.50341844  0.20001844     0.00000
H419        H  0.93364038  0.51280762  0.24442402     0.14600
H420        H  0.86315386  0.55485304  0.28126507     0.14400
Zr421      Zr  0.77956361  0.28897348  0.19410103     2.17500
O422        O  0.78841400  0.32846913  0.15566007    -0.51700
O423        O  0.83500806  0.27718063  0.17590977    -0.74900
O424        O  0.79515753  0.33875758  0.21471418    -0.81600
O425        O  0.74142578  0.23704894  0.13296858    -0.83400
O426        O  0.78786043  0.33982927  0.26615839    -0.79000
O427        O  0.75675471  0.28561316  0.14355049    -0.90600
O428        O  0.85455690  0.23572302  0.20126747    -0.76600
O429        O  0.80547561  0.27390386  0.24057635    -0.86100
O430        O  0.78600169  0.23482445  0.18958990    -0.85800
O431        O  0.74163273  0.30595950  0.23310617    -0.72500
O432        O  0.72579605  0.26804378  0.18654052    -0.84700
Zr433      Zr  0.71935316  0.21574678  0.26892393     2.26400
Zr434      Zr  0.76692515  0.28909779  0.28016796     2.06300
Zr435      Zr  0.73199685  0.21348095  0.18344794     2.10000
Zr436      Zr  0.81141836  0.21987732  0.23628576     1.78800
O437        O  0.68146676  0.20767751  0.15397266    -0.93500
O438        O  0.85639984  0.23199896  0.27109554    -0.41300
O439        O  0.75756366  0.19845493  0.23047575    -0.77900
O440        O  0.77429742  0.23449398  0.27688983    -0.96600
O441        O  0.71255860  0.26934235  0.27289456    -0.89900
O442        O  0.69356108  0.23009946  0.22228351    -0.92800
C443        C  0.85725007  0.25680147  0.18122433     1.01000
C444        C  0.74880141  0.26439727  0.12489535     1.13900
C445        C  0.79586799  0.35266923  0.24067942     1.04700
O446        O  0.81724487  0.29648185  0.30956658    -0.94900
O447        O  0.75638697  0.26755975  0.33134186    -0.90700
O448        O  0.72744584  0.22461382  0.32220751    -0.83800
C449        C  0.74084595  0.24367933  0.34013258     1.11300
O450        O  0.67582484  0.32400475  0.18831696    -0.96900
Zr451      Zr  0.68837437  0.28438855  0.22569686     1.88900
O452        O  0.66202941  0.22628162  0.28272485    -0.73500
O453        O  0.73383990  0.32387752  0.31174269    -0.52800
O454        O  0.67439337  0.33207827  0.25179212    -0.97500
O455        O  0.64058276  0.27500159  0.19336553    -0.54700
O456        O  0.64618679  0.27161468  0.26221446    -0.74100
C457        C  0.64166141  0.24875897  0.27969999     0.98300
O458        O  0.71351514  0.17059474  0.30112087    -0.62900
O459        O  0.76272053  0.17568493  0.15326599    -0.57700
O460        O  0.70645089  0.16535099  0.25189598    -0.94400
O461        O  0.71212498  0.16238423  0.20030079    -0.92800
O462        O  0.82874516  0.17397005  0.20862052    -0.93100
O463        O  0.82646373  0.17600054  0.26770405    -0.91900
C464        C  0.70520420  0.15055008  0.22668799     1.17100
H465        H  0.79922773  0.22900133  0.17199927     0.33100
H466        H  0.78364854  0.22651335  0.29558261     0.43900
H467        H  0.67240121  0.22047530  0.21990809     0.37500
H468        H  0.73822990  0.32777722  0.23275699     0.33900
H469        H  0.87405233  0.21677210  0.26642358     0.25700
H470        H  0.74976178  0.33305613  0.32612058     0.31700
H471        H  0.65188213  0.33751927  0.24459556     0.37600
H472        H  0.85316197  0.17494319  0.20751519     0.32000
H473        H  0.76839290  0.15918800  0.16786180     0.30900
H474        H  0.67681296  0.18561577  0.15447004     0.32600
H475        H  0.62779772  0.25926681  0.20420110     0.31600
H476        H  0.80685912  0.17258473  0.28080596     0.35600
H477        H  0.73450724  0.16818133  0.31255329     0.28300
H478        H  0.81146745  0.33527298  0.15826883     0.32500
H479        H  0.69316329  0.32160698  0.17238547     0.35400
H480        H  0.74601717  0.16671744  0.13952473     0.28000
H481        H  0.69651837  0.17578125  0.31677428     0.40900
H482        H  0.83531596  0.29542324  0.29423360     0.30900
H483        H  0.86522056  0.25148182  0.26344350     0.38500
H484        H  0.64981381  0.26433141  0.17514460     0.30400
H485        H  0.72715986  0.34063974  0.29787935     0.30400
H486        H  0.77429607  0.34619156  0.16161935     0.30700
C487        C  0.60749642  0.00625274  0.29086490     0.86200
C488        C  0.62987097  0.03434393  0.28761609    -0.54100
C489        C  0.64973451  0.03426946  0.26203102     0.09100
C490        C  0.64501925  0.00611576  0.24145680     0.20000
C491        C  0.58823701  0.00602610  0.25994443    -0.54800
C492        C  0.60773512  0.00740044  0.23410148     0.09200
C493        C  0.63049037  0.97822473  0.28752373    -0.54300
C494        C  0.64996695  0.97760680  0.26199695     0.09800
H495        H  0.62798142  0.05371870  0.30308856     0.14300
H496        H  0.66136279  0.00617581  0.22098994     0.00000
H497        H  0.56186259  0.00370069  0.25803847     0.14600
H498        H  0.63032468  0.95941177  0.30357330     0.14400
C499        C  0.49808050  0.21555925  0.92532671     0.86200
C500        C  0.52828239  0.20993162  0.90418009    -0.54100
C501        C  0.53328528  0.23179270  0.88272311     0.09100
C502        C  0.50659232  0.25737593  0.88358320     0.20000
C503        C  0.50200172  0.24772926  0.93832132    -0.54800
C504        C  0.50757370  0.26962406  0.91691360     0.09200
C505        C  0.46929708  0.21849149  0.90233943    -0.54300
C506        C  0.47305733  0.24106747  0.88114361     0.09800
H507        H  0.54464208  0.19013511  0.90587363     0.14300
H508        H  0.50976226  0.27482270  0.86555889     0.00000
H509        H  0.49929288  0.25279427  0.96258713     0.14600
H510        H  0.44743385  0.20463301  0.90282777     0.14400
Zr511      Zr  0.20869212  0.28411578  0.72901866     2.17500
O512        O  0.15477704  0.30950444  0.73382896    -0.51700
O513        O  0.21640543  0.30101967  0.67747779    -0.74900
O514        O  0.21055015  0.33782832  0.73854054    -0.81600
O515        O  0.16585043  0.21082839  0.70837624    -0.83400
O516        O  0.25191750  0.34876626  0.77180035    -0.79000
O517        O  0.15936738  0.26249481  0.70801855    -0.90600
O518        O  0.26502767  0.28075177  0.66005669    -0.76600
O519        O  0.26610387  0.29528798  0.72654258    -0.86100
O520        O  0.23314347  0.24179117  0.70265937    -0.85800
O521        O  0.22546174  0.29113578  0.78098001    -0.72500
O522        O  0.19447512  0.24036159  0.75818361    -0.84700
Zr523      Zr  0.29463582  0.21408297  0.78372875     2.26400
Zr524      Zr  0.28397569  0.30069321  0.77866497     2.06300
Zr525      Zr  0.22018227  0.19794571  0.73242605     2.10000
Zr526      Zr  0.29064146  0.25223966  0.70151377     1.78800
O527        O  0.18224141  0.16102635  0.75373949    -0.93500
O528        O  0.33136743  0.28952613  0.68594011    -0.41300
O529        O  0.27849974  0.20786063  0.73110450    -0.77900
O530        O  0.30924278  0.25753858  0.75329128    -0.96600
O531        O  0.27024094  0.25722166  0.80859020    -0.89900
O532        O  0.23685218  0.20305214  0.78511229    -0.92800
C533        C  0.23831638  0.29654349  0.65681020     1.01000
C534        C  0.14919483  0.23560571  0.70242609     1.13900
C535        C  0.22620446  0.35609670  0.75580833     1.04700
O536        O  0.32366774  0.33370183  0.75378152    -0.94900
O537        O  0.33611017  0.28859654  0.80680792    -0.90700
O538        O  0.34297147  0.23703905  0.80565860    -0.83800
C539        C  0.35263763  0.26378101  0.81280165     1.11300
O540        O  0.15415440  0.26032464  0.81219123    -0.96900
Zr541      Zr  0.21275753  0.24689552  0.80954190     1.88900
O542        O  0.28009390  0.19769478  0.83540244    -0.73500
O543        O  0.28484606  0.32888284  0.82683102    -0.52800
O544        O  0.19590935  0.28635238  0.84614317    -0.97500
O545        O  0.18599709  0.20488348  0.83563788    -0.54700
O546        O  0.24918547  0.23758069  0.85145784    -0.74100
C547        C  0.26577736  0.21326119  0.85664651     0.98300
O548        O  0.34813304  0.18902344  0.79279862    -0.62900
O549        O  0.21818015  0.17483052  0.68165899    -0.57700
O550        O  0.29925951  0.16229764  0.76494489    -0.94400
O551        O  0.25390423  0.15043644  0.73692796    -0.92800
O552        O  0.29320525  0.21706980  0.65826370    -0.93100
O553        O  0.34545866  0.22917206  0.69518094    -0.91900
C554        C  0.28211770  0.14368880  0.74924463     1.17100
H555        H  0.22426687  0.23957684  0.68226507     0.33100
H556        H  0.33293830  0.25980036  0.75264236     0.43900
H557        H  0.23266311  0.18455650  0.79633745     0.37500
H558        H  0.21345285  0.30792631  0.79037449     0.33900
H559        H  0.31899166  0.30916339  0.68508609     0.25700
H560        H  0.28997510  0.35011448  0.82108817     0.31700
H561        H  0.21376018  0.28690266  0.86158686     0.37600
H562        H  0.30595994  0.22795087  0.64240386     0.32000
H563        H  0.24162437  0.17139707  0.67584347     0.30900
H564        H  0.16635684  0.17345567  0.76598951     0.32600
H565        H  0.16954077  0.19737912  0.82078629     0.31600
H566        H  0.34871605  0.21657178  0.71374968     0.35600
H567        H  0.35658361  0.18227992  0.77251178     0.28300
H568        H  0.15448835  0.32682015  0.71931643     0.32500
H569        H  0.15030401  0.27381879  0.79436463     0.35400
H570        H  0.20947311  0.15415889  0.68514233     0.28000
H571        H  0.34359900  0.17006716  0.80422729     0.40900
H572        H  0.31143314  0.34286574  0.73638659     0.30900
H573        H  0.34612828  0.29164178  0.70384947     0.38500
H574        H  0.17260124  0.21473133  0.85204396     0.30400
H575        H  0.26147479  0.32973045  0.83364355     0.30400
H576        H  0.15407031  0.31877123  0.75454153     0.30700
C577        C  0.98207395  0.22220552  0.60313756     0.86200
C578        C  0.95810621  0.23133694  0.62852896    -0.54100
C579        C  0.96717136  0.25574484  0.64557071     0.09100
C580        C  0.99983395  0.27000752  0.63507669     0.20000
C581        C  0.98442286  0.25232876  0.58416437    -0.54800
C582        C  0.99367780  0.27750549  0.60099283     0.09200
C583        C  0.01606985  0.21908305  0.61791198    -0.54300
C584        C  0.02601052  0.24364193  0.63430286     0.09800
H585        H  0.93334820  0.22228507  0.62993216     0.14300
H586        H  0.00615886  0.28977182  0.64958501     0.00000
H587        H  0.97760042  0.25471477  0.56033800     0.14600
H588        H  0.03140813  0.19863268  0.61544109     0.14400
C589        C  0.01027583  0.22495073  0.06454795     0.86200
C590        C  0.97560373  0.22501183  0.07942114    -0.54100
C591        C  0.96992629  0.24854940  0.09951258     0.09100
C592        C  0.99999409  0.26919295  0.10381307     0.20000
C593        C  0.01484032  0.25662742  0.05117594    -0.54800
C594        C  0.00923354  0.27974217  0.07135924     0.09200
C595        C  0.03346590  0.22398082  0.09269973    -0.54300
C596        C  0.02799739  0.24698415  0.11329901     0.09800
H597        H  0.95819042  0.20685680  0.07580771     0.14300
H598        H  0.99563158  0.28829032  0.12020339     0.00000
H599        H  0.02049956  0.26053337  0.02715332     0.14600
H600        H  0.05238843  0.20669626  0.09672948     0.14400
Zr601      Zr  0.03730753  0.04309281  0.04071469     2.17500
O602        O  0.02976896  0.07641437  0.08518310    -0.51700
O603        O  0.09445102  0.05656884  0.03405759    -0.74900
O604        O  0.05562432  0.02525357  0.09059522    -0.81600
O605        O  0.00755368  0.10155439  0.98049667    -0.83400
O606        O  0.04471330  0.97456568  0.09437009    -0.79000
O607        O  0.03351421  0.09588463  0.02641293    -0.90600
O608        O  0.11393654  0.02990454  0.99320336    -0.76600
O609        O  0.06182262  0.99466410  0.02992056    -0.86100
O610        O  0.04668654  0.04317978  0.98671095    -0.85800
O611        O  0.99731040  0.00710471  0.05741329    -0.72500
O612        O  0.98502366  0.05317610  0.01661694    -0.84700
Zr613      Zr  0.97830185  0.96705154  0.96782645     2.26400
Zr614      Zr  0.02142400  0.95806344  0.04481574     2.06300
Zr615      Zr  0.99436653  0.05085037  0.96209473     2.10000
Zr616      Zr  0.07118637  0.99492557  0.97612742     1.78800
O617        O  0.94670481  0.08406629  0.95265895    -0.93500
O618        O  0.11559818  0.96156759  0.99439318    -0.41300
O619        O  0.01895138  0.00223116  0.95056278    -0.77900
O620        O  0.03146625  0.95772330  0.99064143    -0.96600
O621        O  0.96873645  0.96752264  0.02168183    -0.89900
O622        O  0.95398360  0.01548248  0.97865870    -0.92800
C623        C  0.11685687  0.05042095  0.01408822     1.01000
C624        C  0.02219892  0.11200720  0.00430094     1.13900
C625        C  0.05520570  0.00000510  0.10538603     1.04700
O626        O  0.07037487  0.92594082  0.05225304    -0.94900
O627        O  0.00835659  0.90695290  0.02390934    -0.90700
O628        O  0.97743341  0.91413595  0.98100133    -0.83800
C629        C  0.99140139  0.89705473  0.00093377     1.11300
O630        O  0.93323648  0.05746169  0.06921315    -0.96900
Zr631      Zr  0.94561614  0.01669578  0.03270805     1.88900
O632        O  0.92096820  0.95543800  0.97777631    -0.73500
O633        O  0.99014533  0.93254331  0.08468987    -0.52800
O634        O  0.92323807  0.00107858  0.08195957    -0.97500
O635        O  0.90068811  0.05004321  0.01523704    -0.54700
O636        O  0.90375910  0.98027162  0.02082950    -0.74100
C637        C  0.89983200  0.96109139  0.99911981     0.98300
O638        O  0.98907813  0.93179096  0.92527080    -0.62900
O639        O  0.02674711  0.07386948  0.92133033    -0.57700
O640        O  0.95602723  0.98474680  0.91931357    -0.94400
O641        O  0.96830546  0.03470536  0.91365588    -0.92800
O642        O  0.09239305  0.01627708  0.92865742    -0.93100
O643        O  0.08480306  0.95596090  0.93799196    -0.91900
C644        C  0.95532297  0.00972680  0.90410596     1.17100
H645        H  0.06109849  0.05943842  0.98071096     0.33100
H646        H  0.04002107  0.93804213  0.98421523     0.43900
H647        H  0.93347904  0.01827880  0.96768940     0.37500
H648        H  0.99375649  0.00885126  0.07900273     0.33900
H649        H  0.13486426  0.96658442  0.98141408     0.25700
H650        H  0.97088121  0.92389390  0.07397514     0.31700
H651        H  0.93396992  0.98106968  0.08605562     0.37600
H652        H  0.11490909  0.00738835  0.92627807     0.32000
H653        H  0.04523485  0.08407415  0.93180865     0.30900
H654        H  0.95203939  0.09463708  0.93329142     0.32600
H655        H  0.89111123  0.03994055  0.99708274     0.31600
H656        H  0.06584657  0.95636900  0.92368125     0.35600
H657        H  0.99847145  0.94430535  0.90864372     0.28300
H658        H  0.04847659  0.09069668  0.08454898     0.32500
H659        H  0.95444240  0.06803877  0.07200485     0.35400
H660        H  0.03729690  0.05637787  0.91049772     0.28000
H661        H  0.00805218  0.91885025  0.93180829     0.40900
H662        H  0.08810413  0.94026797  0.05769821     0.30900
H663        H  0.12128651  0.96960758  0.01490637     0.38500
H664        H  0.91179614  0.06824607  0.00701821     0.30400
H665        H  0.00401721  0.91458929  0.09020481     0.30400
H666        H  0.00992814  0.08915991  0.08083289     0.30700
Zr667      Zr  0.20830985  0.22908231  0.21969142     2.17500
O668        O  0.20208462  0.18996761  0.18005185    -0.51700
O669        O  0.15314260  0.24070446  0.19998649    -0.74900
O670        O  0.19018258  0.18105364  0.24182962    -0.81600
O671        O  0.26154974  0.27153080  0.16059487    -0.83400
O672        O  0.19301840  0.18246732  0.29374025    -0.79000
O673        O  0.23654538  0.22655641  0.17108108    -0.90600
O674        O  0.13433876  0.28568788  0.21946902    -0.76600
O675        O  0.17924396  0.24815766  0.26335755    -0.86100
O676        O  0.20428617  0.28286155  0.21124082    -0.85800
O677        O  0.24203702  0.21398762  0.26250782    -0.72500
O678        O  0.26340717  0.24798022  0.21540741    -0.84700
Zr679      Zr  0.26445497  0.30613584  0.29404614     2.26400
Zr680      Zr  0.21315415  0.23443129  0.30668113     2.06300
Zr681      Zr  0.25946498  0.30216666  0.20795034     2.10000
Zr682      Zr  0.17605436  0.30205371  0.25532705     1.78800
O683        O  0.30799560  0.31271949  0.17685784    -0.93500
O684        O  0.12577991  0.29612342  0.28548559    -0.41300
O685        O  0.23087044  0.32205439  0.25176927    -0.77900
O686        O  0.20881124  0.28848899  0.29885881    -0.96600
O687        O  0.26886268  0.25255791  0.30245362    -0.89900
O688        O  0.29331286  0.28737265  0.25026995    -0.92800
C689        C  0.13159034  0.26243670  0.20192231     1.01000
C690        C  0.25262625  0.24430992  0.15349786     1.13900
C691        C  0.18648916  0.16869589  0.26819695     1.04700
O692        O  0.15757657  0.23705208  0.32820021    -0.94900
O693        O  0.22205886  0.26066253  0.35694593    -0.90700
O694        O  0.25509996  0.30087456  0.34753699    -0.83800
C695        C  0.23848317  0.28427614  0.36572303     1.11300
O696        O  0.31155978  0.18714119  0.23017553    -0.96900
Zr697      Zr  0.29653529  0.23362370  0.25796676     1.88900
O698        O  0.32201114  0.29955710  0.30915368    -0.73500
O699        O  0.23114941  0.19666837  0.34415295    -0.52800
O700        O  0.30930781  0.19268488  0.29384332    -0.97500
O701        O  0.34361537  0.23388652  0.22291209    -0.54700
O702        O  0.34013033  0.25509341  0.28777834    -0.74100
C703        C  0.34424867  0.27894334  0.30410201     0.98300
O704        O  0.25101452  0.34919362  0.32765571    -0.62900
O705        O  0.22684696  0.33706486  0.17640079    -0.57700
O706        O  0.28759665  0.35284327  0.27534502    -0.94400
O707        O  0.28475369  0.35149541  0.22348973    -0.92800
O708        O  0.16237838  0.34595173  0.22348861    -0.93100
O709        O  0.16448763  0.34685960  0.28698335    -0.91900
C710        C  0.29270558  0.36460968  0.24905804     1.17100
H711        H  0.19256022  0.28744175  0.19254219     0.33100
H712        H  0.19837908  0.29800283  0.31645881     0.43900
H713        H  0.31494878  0.29617732  0.24829404     0.37500
H714        H  0.24495169  0.19216229  0.26378590     0.33900
H715        H  0.11925209  0.27472596  0.28205668     0.25700
H716        H  0.25057919  0.20565560  0.35429953     0.31700
H717        H  0.29678973  0.19797901  0.31269626     0.37600
H718        H  0.18153267  0.35959454  0.22533574     0.32000
H719        H  0.24285674  0.35234232  0.16923946     0.30900
H720        H  0.32696249  0.30947697  0.19082015     0.32600
H721        H  0.36340674  0.23612151  0.23596882     0.31600
H722        H  0.18456292  0.35936003  0.28522321     0.35600
H723        H  0.27214731  0.35935231  0.33209670     0.28300
H724        H  0.17834023  0.18998171  0.17468009     0.32500
H725        H  0.29310452  0.17304591  0.23381936     0.35400
H726        H  0.22143369  0.32518995  0.15779712     0.28000
H727        H  0.23838821  0.36381025  0.31481121     0.40900
H728        H  0.14385456  0.22536434  0.31370223     0.30900
H729        H  0.13314273  0.29665537  0.30709449     0.38500
H730        H  0.34157566  0.25350068  0.21187284     0.30400
H731        H  0.21360568  0.19706657  0.36003790     0.30400
H732        H  0.20667313  0.16980647  0.18937897     0.30700
C733        C  0.09871433  0.01213760  0.28837697     0.86200
C734        C  0.11845404  0.04126670  0.28819803    -0.54100
C735        C  0.14186578  0.04293889  0.26613546     0.09100
C736        C  0.14242545  0.01480234  0.24401073     0.20000
C737        C  0.08396861  0.01107822  0.25528773    -0.54800
C738        C  0.10665979  0.01297963  0.23116091     0.09200
C739        C  0.12364005  0.98551932  0.28784490    -0.54300
C740        C  0.14553051  0.98552227  0.26414266     0.09800
H741        H  0.11375298  0.05980119  0.30433488     0.14300
H742        H  0.16292403  0.01681110  0.22791483     0.00000
H743        H  0.05818449  0.00683840  0.25134889     0.14600
H744        H  0.12210100  0.96653972  0.30371192     0.14400
Zr745      Zr  0.93570256  0.03153242  0.53567517     2.17500
O746        O  0.88015363  0.03353242  0.55773629    -0.51700
O747        O  0.94674216  0.08435628  0.54987625    -0.74900
O748        O  0.93519287  0.02235775  0.59060237    -0.81600
O749        O  0.89578459  0.04817385  0.45808232    -0.83400
O750        O  0.97806223  0.99073889  0.60332618    -0.79000
O751        O  0.88868438  0.05333044  0.50951758    -0.90600
O752        O  0.99378734  0.09900383  0.52601005    -0.76600
O753        O  0.99299962  0.03320549  0.54736913    -0.86100
O754        O  0.96029033  0.05271169  0.49099697    -0.85800
O755        O  0.95210415  0.97955239  0.54521213    -0.72500
O756        O  0.92220745  0.99820520  0.49391698    -0.84700
Zr757      Zr  0.02208621  0.96833142  0.47062650     2.26400
Zr758      Zr  0.01047473  0.98121958  0.55612275     2.06300
Zr759      Zr  0.94809290  0.01892650  0.44922141     2.10000
Zr760      Zr  0.01762097  0.05384701  0.50255119     1.78800
O761        O  0.91159339  0.98847835  0.41763366    -0.93500
O762        O  0.05630703  0.06819860  0.54266035    -0.41300
O763        O  0.00590812  0.02028531  0.46072152    -0.77900
O764        O  0.03596768  0.00284731  0.51147775    -0.96600
O765        O  0.99739911  0.94703116  0.51480385    -0.89900
O766        O  0.96497575  0.96676761  0.45823517    -0.92800
C767        C  0.96835974  0.10433769  0.54279668     1.01000
C768        C  0.87964865  0.05800506  0.48186312     1.13900
C769        C  0.95174697  0.00650185  0.61005305     1.04700
O770        O  0.04626019  0.00503833  0.59369724    -0.94900
O771        O  0.06772026  0.96077093  0.54883668    -0.90700
O772        O  0.07230294  0.95478307  0.49736987    -0.83800
C773        C  0.08444944  0.95384764  0.52442206     1.11300
O774        O  0.88422931  0.94299963  0.52449906    -0.96900
Zr775      Zr  0.93981420  0.94652647  0.50323580     1.88900
O776        O  0.01190429  0.91446722  0.46151848    -0.73500
O777        O  0.00969297  0.93253253  0.58278379    -0.52800
O778        O  0.93594909  0.91005453  0.54503771    -0.97500
O779        O  0.89973938  0.93066868  0.46493655    -0.54700
O780        O  0.96418323  0.89945233  0.48334900    -0.74100
C781        C  0.99088843  0.89393158  0.46835603     0.98300
O782        O  0.06696966  0.95177763  0.43646146    -0.62900
O783        O  0.94316750  0.06084418  0.41289588    -0.57700
O784        O  0.02861894  0.98607167  0.41860182    -0.94400
O785        O  0.98535253  0.01600779  0.40397018    -0.92800
O786        O  0.02171525  0.09246772  0.46280385    -0.93100
O787        O  0.07376925  0.05975693  0.48336341    -0.91900
C788        C  0.01365963  0.00286851  0.39885940     1.17100
H789        H  0.95165754  0.07292975  0.48682136     0.33100
H790        H  0.05943474  0.00527521  0.51394265     0.43900
H791        H  0.96158694  0.95413554  0.44038568     0.37500
H792        H  0.94001920  0.97152255  0.56240175     0.33900
H793        H  0.04234425  0.07374501  0.56056880     0.25700
H794        H  0.01495086  0.91706248  0.56685146     0.31700
H795        H  0.92144952  0.89381244  0.53726068     0.37600
H796        H  0.03305262  0.10970821  0.47275779     0.32000
H797        H  0.92229781  0.05723195  0.40175134     0.30900
H798        H  0.91630494  0.99499793  0.39638805     0.32600
H799        H  0.89179565  0.91072665  0.47223721     0.31600
H800        H  0.07539506  0.04568694  0.46561088     0.35600
H801        H  0.08606042  0.96480400  0.44127992     0.28300
H802        H  0.88034972  0.04985740  0.57343650     0.32500
H803        H  0.87940262  0.96350338  0.53313040     0.35400
H804        H  0.93867298  0.07926119  0.42551487     0.28000
H805        H  0.07367963  0.93107250  0.44327327     0.40900
H806        H  0.05497801  0.98791200  0.60617330     0.30900
H807        H  0.06748109  0.04890066  0.54870622     0.38500
H808        H  0.91284093  0.92558183  0.44637443     0.30400
H809        H  0.02949661  0.93269477  0.59605311     0.30400
H810        H  0.87758465  0.01433590  0.56931043     0.30700
C811        C  0.25852534  0.17263561  0.98291242     0.86200
C812        C  0.22651732  0.15468393  0.98639964    -0.54100
C813        C  0.22216133  0.14017749  0.01387305     0.09100
C814        C  0.25110911  0.14633791  0.03621368     0.20000
C815        C  0.25922030  0.19481161  0.00983064    -0.54800
C816        C  0.25432885  0.18166723  0.03771024     0.09200
C817        C  0.28535207  0.14863741  0.99049674    -0.54300
C818        C  0.28168816  0.13526151  0.01822702     0.09800
H819        H  0.20937189  0.15247110  0.96751828     0.14300
H820        H  0.24950438  0.13531501  0.05878466     0.00000
H821        H  0.26474306  0.21872869  0.00695648     0.14600
H822        H  0.30490445  0.14097382  0.97514657     0.14400
Zr823      Zr  0.46048472  0.03654436  0.97996740     2.17500
O824        O  0.44176259  0.06588343  0.93561428    -0.51700
O825        O  0.40724673  0.05523663  0.99939832    -0.74900
O826        O  0.44111720  0.01645613  0.93103074    -0.81600
O827        O  0.51087791  0.09790693  0.02181124    -0.83400
O828        O  0.44848084  0.96519970  0.93042692    -0.79000
O829        O  0.47814665  0.08871008  0.98071797    -0.90600
O830        O  0.39612923  0.03484616  0.04601408    -0.76600
O831        O  0.43665542  0.99141878  0.99976311    -0.86100
O832        O  0.46226092  0.04301593  0.03424484    -0.85800
O833        O  0.49644826  0.99634701  0.96134693    -0.72500
O834        O  0.51749429  0.04419953  0.99328833    -0.84700
Zr835      Zr  0.52928795  0.96311098  0.05029221     2.26400
Zr836      Zr  0.47237077  0.95079034  0.98133085     2.06300
Zr837      Zr  0.51878216  0.04905478  0.04818855     2.10000
Zr838      Zr  0.43902562  0.99778194  0.05426835     1.78800
O839        O  0.57151035  0.07474023  0.05233428    -0.93500
O840        O  0.38839484  0.96912978  0.04762521    -0.41300
O841        O  0.49525516  0.00395452  0.06969182    -0.77900
O842        O  0.47246751  0.95650897  0.03630855    -0.96600
O843        O  0.52915763  0.95703451  0.99594292    -0.89900
O844        O  0.55378075  0.00807652  0.03095231    -0.92800
C845        C  0.38992324  0.05295657  0.02395368     1.01000
C846        C  0.49522228  0.10636674  0.99755970     1.13900
C847        C  0.43962820  0.99052700  0.91728504     1.04700
O848        O  0.41931211  0.92567453  0.97746433    -0.94900
O849        O  0.48129746  0.90105351  0.00731866    -0.90700
O850        O  0.51826877  0.90966621  0.04550716    -0.83800
C851        C  0.49914250  0.89228184  0.03030143     1.11300
O852        O  0.55905888  0.03255598  0.93030841    -0.96900
Zr853      Zr  0.55237222  0.00280269  0.97686204     1.88900
O854        O  0.58512750  0.94811067  0.03717734    -0.73500
O855        O  0.49863018  0.91385983  0.94691155    -0.52800
O856        O  0.56876667  0.97288016  0.93203254    -0.97500
O857        O  0.59661208  0.03949773  0.98208031    -0.54700
O858        O  0.59806240  0.97043151  0.99204531    -0.74100
C859        C  0.60461330  0.95286977  0.01467754     0.98300
O860        O  0.52943236  0.92793371  0.09354433    -0.62900
O861        O  0.49294762  0.08441026  0.08460089    -0.57700
O862        O  0.55433446  0.98405459  0.09621755    -0.94400
O863        O  0.54522552  0.03523349  0.09700012    -0.92800
O864        O  0.43017054  0.02419151  0.10282112    -0.93100
O865        O  0.43089137  0.96312057  0.09704768    -0.91900
C866        C  0.55657830  0.01033326  0.10891881     1.17100
H867        H  0.45071865  0.06123466  0.04101891     0.33100
H868        H  0.46336979  0.93885998  0.04616315     0.43900
H869        H  0.57603203  0.01039847  0.03848840     0.37500
H870        H  0.49768429  0.99608032  0.93926995     0.33900
H871        H  0.38031979  0.97452437  0.02691352     0.25700
H872        H  0.48062305  0.90673526  0.93351105     0.31700
H873        H  0.54811913  0.96986567  0.92037383     0.37600
H874        H  0.43987724  0.04452660  0.09976287     0.32000
H875        H  0.49397642  0.07387006  0.10460071     0.30900
H876        H  0.56825701  0.08974640  0.06912065     0.32600
H877        H  0.61281076  0.02988559  0.99616019     0.31600
H878        H  0.45330321  0.95512135  0.10185953     0.35600
H879        H  0.55289440  0.92449688  0.09907973     0.28300
H880        H  0.42828235  0.08307718  0.94391908     0.32500
H881        H  0.53746628  0.04313641  0.92754352     0.35400
H882        H  0.50876605  0.10129390  0.08656090     0.28000
H883        H  0.51946975  0.93918668  0.11107291     0.40900
H884        H  0.41422226  0.91919519  0.99864078     0.30900
H885        H  0.39582148  0.94758496  0.04577009     0.38500
H886        H  0.58664478  0.05645536  0.99413279     0.30400
H887        H  0.51288294  0.92608517  0.93338981     0.30400
H888        H  0.46166741  0.07536269  0.92672743     0.30700
Zr889      Zr  0.53624792  0.04004335  0.47907819     2.17500
O890        O  0.58646146  0.05771917  0.45384007    -0.51700
O891        O  0.51503279  0.08857216  0.46137671    -0.74900
O892        O  0.54278321  0.02435325  0.42597266    -0.81600
O893        O  0.57663405  0.06368840  0.55507117    -0.83400
O894        O  0.50359577  0.99004914  0.41361174    -0.79000
O895        O  0.58204936  0.06420829  0.50316622    -0.90600
O896        O  0.46332786  0.09762072  0.47986960    -0.76600
O897        O  0.47918197  0.03477847  0.46792024    -0.86100
O898        O  0.50808430  0.06158630  0.52232490    -0.85800
O899        O  0.53007171  0.98611406  0.47284267    -0.72500
O900        O  0.55586959  0.01251638  0.52302647    -0.84700
Zr901      Zr  0.46206844  0.97265780  0.54984904     2.26400
Zr902      Zr  0.47211140  0.98082151  0.46216333     2.06300
Zr903      Zr  0.52657710  0.03347271  0.56636025     2.10000
Zr904      Zr  0.45100854  0.05461934  0.51202673     1.78800
O905        O  0.56586147  0.01382650  0.60386043    -0.93500
O906        O  0.40348788  0.05642500  0.47790962    -0.41300
O907        O  0.46901387  0.02664790  0.55610874    -0.77900
O908        O  0.44259807  0.00142710  0.50600049    -0.96600
O909        O  0.49045203  0.95221853  0.50622388    -0.89900
O910        O  0.51918276  0.97917050  0.56120121    -0.92800
C911        C  0.48865323  0.10481519  0.46404191     1.01000
C912        C  0.59186783  0.07090708  0.53007518     1.13900
C913        C  0.52898276  0.00642656  0.40683256     1.04700
O914        O  0.43181096  0.00206173  0.42643252    -0.94900
O915        O  0.42179724  0.95106984  0.47294782    -0.90700
O916        O  0.41450916  0.95117856  0.52474732    -0.83800
C917        C  0.40525641  0.94480876  0.49748587     1.11300
O918        O  0.60406146  0.96147591  0.49850400    -0.96900
Zr919      Zr  0.54739163  0.95894385  0.51733067     1.88900
O920        O  0.47989772  0.91994639  0.56006146    -0.73500
O921        O  0.47654829  0.93242659  0.43482152    -0.52800
O922        O  0.56184247  0.92177875  0.47773226    -0.97500
O923        O  0.58545443  0.94615623  0.55868891    -0.54700
O924        O  0.52758378  0.91043161  0.53475121    -0.74100
C925        C  0.50301517  0.90167326  0.55069242     0.98300
O926        O  0.41950168  0.95534300  0.58535484    -0.62900
O927        O  0.52257131  0.08340391  0.59079685    -0.57700
O928        O  0.45380632  0.99219503  0.60209665    -0.94400
O929        O  0.49236867  0.02767617  0.61331992    -0.92800
O930        O  0.44323648  0.10040476  0.54312044    -0.93100
O931        O  0.39945545  0.05585620  0.54108128    -0.91900
C932        C  0.46692910  0.01161331  0.62038246     1.17100
H933        H  0.51299392  0.08295721  0.52463299     0.33100
H934        H  0.41903406  0.00046797  0.50307818     0.43900
H935        H  0.52528816  0.96844683  0.57969544     0.37500
H936        H  0.54368039  0.97789444  0.45652163     0.33900
H937        H  0.39376955  0.07709807  0.48083254     0.25700
H938        H  0.46316875  0.93552974  0.41609176     0.31700
H939        H  0.54034982  0.91562080  0.46908317     0.37600
H940        H  0.42655058  0.11280660  0.53194324     0.32000
H941        H  0.49855175  0.08800894  0.59191828     0.30900
H942        H  0.58703200  0.01194916  0.59251761     0.32600
H943        H  0.59953132  0.96428605  0.56086821     0.31600
H944        H  0.39256281  0.03432448  0.54211176     0.35600
H945        H  0.39849648  0.96520891  0.57879206     0.28300
H946        H  0.57918213  0.06950435  0.43567813     0.32500
H947        H  0.60610363  0.98248745  0.49058586     0.35400
H948        H  0.52928798  0.07985701  0.61230513     0.28000
H949        H  0.41671190  0.93334714  0.58105025     0.40900
H950        H  0.40999165  0.99796907  0.43575159     0.30900
H951        H  0.41310579  0.05670981  0.45703614     0.38500
H952        H  0.60041433  0.93022453  0.55003136     0.30400
H953        H  0.49967668  0.93124810  0.42736670     0.30400
H954        H  0.59802841  0.03937510  0.44556497     0.30700
C955        C  0.49501760  0.22011797  0.39819555     0.86200
C956        C  0.52363417  0.21774516  0.37538777    -0.54100
C957        C  0.52659312  0.24220418  0.35661101     0.09100
C958        C  0.50113896  0.26788282  0.36288725     0.20000
C959        C  0.50001028  0.25023192  0.41579199    -0.54800
C960        C  0.50381327  0.27506807  0.39728177     0.09200
C961        C  0.46432429  0.22780144  0.37830196    -0.54300
C962        C  0.46769625  0.25250877  0.35965591     0.09800
H963        H  0.54034328  0.19811172  0.37417711     0.14300
H964        H  0.50393886  0.28846716  0.34851175     0.00000
H965        H  0.49763491  0.25239447  0.44039679     0.14600
H966        H  0.44047512  0.21714912  0.38080954     0.14400
Zr967      Zr  0.95595645  0.46657401  0.03020544     2.17500
O968        O  0.94974941  0.43172874  0.07335718    -0.51700
O969        O  0.89984449  0.45038501  0.01914748    -0.74900
O970        O  0.93775278  0.49035977  0.07779316    -0.81600
O971        O  0.00188898  0.40183206  0.98725115    -0.83400
O972        O  0.94394606  0.54160993  0.07510715    -0.79000
O973        O  0.97559269  0.41477225  0.03167200    -0.90600
O974        O  0.88388393  0.47096686  0.97375763    -0.76600
O975        O  0.93082178  0.51171226  0.01031814    -0.86100
O976        O  0.95244005  0.45734169  0.97637765    -0.85800
O977        O  0.99330721  0.50615464  0.04483446    -0.72500
O978        O  0.01125619  0.45670375  0.01218868    -0.84700
Zr979      Zr  0.02073370  0.53435765  0.95300169     2.26400
Zr980      Zr  0.96824824  0.55163712  0.02399604     2.06300
Zr981      Zr  0.00776412  0.44896154  0.95795975     2.10000
Zr982      Zr  0.92870371  0.50296071  0.95627247     1.78800
O983        O  0.05498874  0.41442225  0.95150508    -0.93500
O984        O  0.88216332  0.53882673  0.95948858    -0.41300
O985        O  0.98399182  0.49483085  0.93730232    -0.77900
O986        O  0.96468759  0.54365229  0.96962510    -0.96600
O987        O  0.02417942  0.54245982  0.00682191    -0.89900
O988        O  0.04522147  0.48855712  0.97181847    -0.92800
C989        C  0.87925627  0.45384169  0.99709395     1.01000
C990        C  0.98985278  0.39553244  0.01378893     1.13900
C991        C  0.93583566  0.51714699  0.08947643     1.04700
O992        O  0.91645698  0.58069431  0.02578562    -0.94900
O993        O  0.97987615  0.60036276  0.99789932    -0.90700
O994        O  0.01133960  0.58849045  0.95624037    -0.83800
C995        C  0.99613507  0.60774193  0.97357223     1.11300
O996        O  0.05400029  0.46664208  0.07261430    -0.96900
Zr997      Zr  0.04818950  0.49626747  0.02573537     1.88900
O998        O  0.07820714  0.54743801  0.96300234    -0.73500
O999        O  0.99423708  0.58575908  0.06048420    -0.52800
O1000       O  0.06883458  0.52679609  0.06804448    -0.97500
O1001       O  0.09079982  0.45648494  0.02154899    -0.54700
O1002       O  0.09510396  0.52457434  0.00676520    -0.74100
C1003       C  0.10011242  0.54178416  0.98360345     0.98300
O1004       O  0.01992930  0.56741149  0.90805376    -0.62900
O1005       O  0.97419490  0.41912295  0.92290926    -0.57700
O1006       O  0.04170300  0.51041618  0.90681345    -0.94400
O1007       O  0.03541712  0.45909188  0.90871737    -0.92800
O1008       O  0.91609561  0.47188222  0.91152622    -0.93100
O1009       O  0.91907582  0.53286394  0.91013294    -0.91900
C1010       C  0.04462690  0.48366316  0.89525507     1.17100
H1011       H  0.93938404  0.43964960  0.97186376     0.33100
H1012       H  0.95569992  0.56164178  0.95982092     0.43900
H1013       H  0.06678888  0.48488603  0.96284666     0.37500
H1014       H  0.99530967  0.50762705  0.06680851     0.33900
H1015       H  0.86673636  0.52985372  0.97448108     0.25700
H1016       H  0.97556864  0.59611789  0.07120684     0.31700
H1017       H  0.04967934  0.52973343  0.08197428     0.37600
H1018       H  0.90830716  0.45227448  0.91982117     0.32000
H1019       H  0.98377002  0.42257353  0.90233661     0.30900
H1020       H  0.06980853  0.41933169  0.96877272     0.32600
H1021       H  0.10883977  0.46337056  0.03505686     0.31600
H1022       H  0.94146342  0.53666500  0.90187877     0.35600
H1023       H  0.04292111  0.56769266  0.90018438     0.28300
H1024       H  0.92662079  0.43408424  0.08060548     0.32500
H1025       H  0.03131750  0.46001844  0.07755656     0.35400
H1026       H  0.97990344  0.39760373  0.92759006     0.28000
H1027       H  0.00707589  0.55660952  0.89220855     0.40900
H1028       H  0.89930580  0.56541028  0.03005041     0.30900
H1029       H  0.89107258  0.55689346  0.97009473     0.38500
H1030       H  0.09992285  0.45835725  0.00059276     0.30400
H1031       H  0.00417081  0.57210281  0.07607819     0.30400
H1032       H  0.96362121  0.43970082  0.09015610     0.30700
Zr1033     Zr  0.45267075  0.53136462  0.02070584     2.17500
O1034       O  0.40504189  0.55016941  0.05026370    -0.51700
O1035       O  0.46175025  0.58451467  0.03114454    -0.74900
O1036       O  0.44746014  0.51953618  0.07491857    -0.81600
O1037       O  0.41596515  0.54371256  0.94129763    -0.83400
O1038       O  0.49309877  0.49367847  0.09143832    -0.79000
O1039       O  0.40227642  0.53714384  0.99133226    -0.90600
O1040       O  0.51299474  0.59781019  0.01562994    -0.76600
O1041       O  0.50931127  0.53239213  0.03506394    -0.86100
O1042       O  0.48070989  0.55308531  0.97790751    -0.85800
O1043       O  0.46693259  0.47924543  0.03127722    -0.72500
O1044       O  0.44091315  0.49955693  0.97758645    -0.84700
Zr1045     Zr  0.54240278  0.46764370  0.95986202     2.26400
Zr1046     Zr  0.52431275  0.48021103  0.04476590     2.06300
Zr1047     Zr  0.47095053  0.51990811  0.93510302     2.10000
Zr1048     Zr  0.53752071  0.55287749  0.99191523     1.78800
O1049       O  0.43867295  0.49351560  0.89656222    -0.93500
O1050       O  0.57688755  0.56820660  0.03100408    -0.41300
O1051       O  0.52804397  0.51989037  0.94928799    -0.77900
O1052       O  0.55439481  0.50127904  0.00220449    -0.96600
O1053       O  0.51327302  0.44690234  0.00222804    -0.89900
O1054       O  0.48588978  0.46766567  0.94462210    -0.92800
C1055       C  0.48498189  0.60367384  0.02821467     1.01000
C1056       C  0.39543544  0.54520472  0.96389165     1.13900
C1057       C  0.46474719  0.50671949  0.09599832     1.04700
O1058       O  0.56243322  0.50101987  0.08217746    -0.94900
O1059       O  0.57709636  0.45238992  0.04137456    -0.90700
O1060       O  0.58908429  0.44986178  0.99047557    -0.83800
C1061       C  0.59623477  0.44542470  0.01875976     1.11300
O1062       O  0.40219901  0.44474428  0.01142947    -0.96900
Zr1063     Zr  0.45645298  0.44810700  0.98746958     1.88900
O1064       O  0.52987464  0.41501001  0.94644008    -0.73500
O1065       O  0.51503316  0.43351140  0.07336341    -0.52800
O1066       O  0.45090584  0.40453430  0.02143370    -0.97500
O1067       O  0.41283508  0.44049308  0.94998330    -0.54700
O1068       O  0.47714973  0.40432359  0.96009571    -0.74100
C1069       C  0.50502653  0.39728331  0.94804337     0.98300
O1070       O  0.58948196  0.45169442  0.92810004    -0.62900
O1071       O  0.46886018  0.56661688  0.90490403    -0.57700
O1072       O  0.55214216  0.48532520  0.90790733    -0.94400
O1073       O  0.50871680  0.51399096  0.89112947    -0.92800
O1074       O  0.54264563  0.59174323  0.95251089    -0.93100
O1075       O  0.59301938  0.55806411  0.97090918    -0.91900
C1076       C  0.53711698  0.50086701  0.88711433     1.17100
H1077       H  0.47242449  0.57334498  0.97340740     0.33100
H1078       H  0.57773421  0.50209015  0.00659749     0.43900
H1079       H  0.48291277  0.45552634  0.92635819     0.37500
H1080       H  0.45394204  0.47096647  0.04773387     0.33900
H1081       H  0.58427765  0.58862338  0.02452778     0.25700
H1082       H  0.52051570  0.41681227  0.05880329     0.31700
H1083       H  0.47291793  0.39432971  0.02126297     0.37600
H1084       H  0.51966746  0.59777588  0.94732438     0.32000
H1085       H  0.46001646  0.58258693  0.91891383     0.30900
H1086       H  0.43838779  0.50745847  0.87876729     0.32600
H1087       H  0.40811375  0.41844075  0.95095061     0.31600
H1088       H  0.59331406  0.54505709  0.95231103     0.35600
H1089       H  0.60902884  0.46218249  0.93633784     0.28300
H1090       H  0.39838748  0.56985719  0.04089028     0.32500
H1091       H  0.39478595  0.46621544  0.01418737     0.35400
H1092       H  0.49224824  0.57212552  0.90169810     0.28000
H1093       H  0.59336696  0.42982796  0.93265903     0.40900
H1094       H  0.57747085  0.51386062  0.07001607     0.30900
H1095       H  0.56332071  0.57220709  0.04955314     0.38500
H1096       H  0.42352924  0.44325773  0.92979279     0.30400
H1097       H  0.53303452  0.43275730  0.08867730     0.30400
H1098       H  0.38655574  0.53631707  0.04586361     0.30700
Zr1099     Zr  0.95457008  0.53253891  0.46803507     2.17500
O1100       O  0.91453598  0.57479748  0.46579064    -0.51700
O1101       O  0.94210662  0.52081570  0.41429173    -0.74900
O1102       O  0.97660675  0.57937423  0.44765635    -0.81600
O1103       O  0.88940789  0.49643982  0.51916527    -0.83400
O1104       O  0.03248728  0.57738042  0.45025163    -0.79000
O1105       O  0.89692975  0.53057100  0.48072608    -0.90600
O1106       O  0.96653682  0.47605695  0.40028759    -0.76600
O1107       O  0.00136073  0.51050394  0.44321773    -0.86100
O1108       O  0.94507419  0.47916974  0.47010762    -0.85800
O1109       O  0.99997687  0.54942522  0.49893437    -0.72500
O1110       O  0.95036785  0.52017081  0.52169559    -0.84700
Zr1111     Zr  0.03648698  0.45964035  0.52736405     2.26400
Zr1112     Zr  0.04720348  0.52747525  0.47337365     2.06300
Zr1113     Zr  0.94166389  0.46638414  0.52359070     2.10000
Zr1114     Zr  0.99247721  0.45680297  0.44622012     1.78800
O1115       O  0.91787372  0.46780405  0.57491101    -0.93500
O1116       O  0.03445397  0.44815698  0.40681659    -0.41300
O1117       O  0.98906734  0.44315643  0.49911254    -0.77900
O1118       O  0.03930920  0.47308861  0.47404180    -0.96600
O1119       O  0.04520970  0.51319021  0.52665567    -0.89900
O1120       O  0.98921221  0.48073480  0.55288039    -0.92800
C1121       C  0.94917789  0.49993310  0.39439690     1.01000
C1122       C  0.87914314  0.51785340  0.50109181     1.13900
C1123       C  0.00500408  0.59134890  0.44391959     1.04700
O1124       O  0.07452886  0.53335388  0.42402932    -0.94900
O1125       O  0.10020820  0.49970390  0.47425290    -0.90700
O1126       O  0.09289182  0.46105298  0.50834035    -0.83800
C1127       C  0.11029665  0.47604763  0.48908702     1.11300
O1128       O  0.97177698  0.58414424  0.55925592    -0.96900
Zr1129     Zr  0.99760318  0.53414971  0.55163165     1.88900
O1130       O  0.05386626  0.47065898  0.57997269    -0.73500
O1131       O  0.08430386  0.56271944  0.49867985    -0.52800
O1132       O  0.03801695  0.57338064  0.56206744    -0.97500
O1133       O  0.95889463  0.53595786  0.59451757    -0.54700
O1134       O  0.02957723  0.51513531  0.59515344    -0.74100
C1135       C  0.04829966  0.49171456  0.59997913     0.98300
O1136       O  0.07546009  0.41657611  0.53002185    -0.62900
O1137       O  0.90090519  0.43009456  0.50576798    -0.57700
O1138       O  0.01209285  0.41305664  0.54598507    -0.94400
O1139       O  0.95620888  0.41646216  0.54642363    -0.92800
O1140       O  0.95012726  0.41956310  0.43511054    -0.93100
O1141       O  0.01595969  0.40529541  0.44453843    -0.91900
C1142       C  0.98359978  0.40191964  0.55168784     1.17100
H1143       H  0.92509709  0.47410865  0.45927737     0.33100
H1144       H  0.05702498  0.46230136  0.46365950     0.43900
H1145       H  0.98740050  0.47319762  0.57357950     0.37500
H1146       H  0.00094005  0.57136977  0.49954862     0.33900
H1147       H  0.02417962  0.43427023  0.39181239     0.25700
H1148       H  0.10005240  0.54967607  0.51024930     0.31700
H1149       H  0.04031729  0.58454582  0.54252554     0.37600
H1150       H  0.94217246  0.41302154  0.45550127     0.32000
H1151       H  0.88371772  0.43013101  0.52196939     0.30900
H1152       H  0.89594279  0.45835870  0.57269889     0.32600
H1153       H  0.96278215  0.51665809  0.60574163     0.31600
H1154       H  0.03506988  0.40584151  0.45865101     0.35600
H1155       H  0.07525532  0.40963034  0.55158578     0.28300
H1156       H  0.91429978  0.58188097  0.44426095     0.32500
H1157       H  0.95547474  0.58599378  0.54245666     0.35400
H1158       H  0.88999611  0.44000459  0.48805255     0.28000
H1159       H  0.06548097  0.39984138  0.51808265     0.40900
H1160       H  0.07099042  0.51376135  0.41330069     0.30900
H1161       H  0.03607091  0.46788112  0.39601303     0.38500
H1162       H  0.93686780  0.53356855  0.58506521     0.30400
H1163       H  0.09767104  0.57132348  0.48185727     0.30400
H1164       H  0.92418691  0.59168057  0.47775196     0.30700
C1165       C  0.23103920  0.35395515  0.53925948     0.86200
C1166       C  0.20671117  0.37906930  0.52958429    -0.54100
C1167       C  0.21499587  0.39359077  0.50325275     0.09100
C1168       C  0.24715247  0.38121849  0.48820652     0.20000
C1169       C  0.23279339  0.33249921  0.51095788    -0.54800
C1170       C  0.24102801  0.34650681  0.48415173     0.09200
C1171       C  0.26526699  0.36826412  0.53960078    -0.54300
C1172       C  0.27393034  0.38324917  0.51370304     0.09800
H1173       H  0.18406024  0.38445718  0.54190133     0.14300
H1174       H  0.25286938  0.39323513  0.46671537     0.00000
H1175       H  0.22831024  0.30829152  0.51100046     0.14600
H1176       H  0.28160328  0.36676553  0.55930717     0.14400
Zr1177     Zr  0.45806783  0.46573125  0.46466794     2.17500
O1178       O  0.40357507  0.45673747  0.44269253    -0.51700
O1179       O  0.47440556  0.41530322  0.44593065    -0.74900
O1180       O  0.45291359  0.48069719  0.41123742    -0.81600
O1181       O  0.42130682  0.44117179  0.54175349    -0.83400
O1182       O  0.49174252  0.51598238  0.40034909    -0.79000
O1183       O  0.41238775  0.44306777  0.49025094    -0.90600
O1184       O  0.52698700  0.40642136  0.46067543    -0.76600
O1185       O  0.51441788  0.47211294  0.45099507    -0.86100
O1186       O  0.48797005  0.44179021  0.50532754    -0.85800
O1187       O  0.46417509  0.51998454  0.46132195    -0.72500
O1188       O  0.44235572  0.49127259  0.51140622    -0.84700
Zr1189     Zr  0.53647333  0.52896385  0.53541820     2.26400
Zr1190     Zr  0.52154733  0.52643413  0.44891048     2.06300
Zr1191     Zr  0.47333500  0.46801222  0.55209534     2.10000
Zr1192     Zr  0.54422727  0.44886158  0.49199259     1.78800
O1193       O  0.43328336  0.48037937  0.59217249    -0.93500
O1194       O  0.58699216  0.44523749  0.45264567    -0.41300
O1195       O  0.53012671  0.47477192  0.53888426    -0.77900
O1196       O  0.55310523  0.50235153  0.48920502    -0.96600
O1197       O  0.50595585  0.55280701  0.49529014    -0.89900
O1198       O  0.48024437  0.52219834  0.54927206    -0.92800
C1199       C  0.50056750  0.39849061  0.44681203     1.01000
C1200       C  0.40408206  0.43593914  0.51747741     1.13900
C1201       C  0.46715377  0.49904574  0.39281732     1.04700
O1202       O  0.55948275  0.52074660  0.40575050    -0.94900
O1203       O  0.57356837  0.55379152  0.45855006    -0.90700
O1204       O  0.58000462  0.55612063  0.51033407    -0.83800
C1205       C  0.58937309  0.56159121  0.48296876     1.11300
O1206       O  0.39312570  0.54372999  0.48936827    -0.96900
Zr1207     Zr  0.44958404  0.54505870  0.50853481     1.88900
O1208       O  0.51967492  0.58021560  0.55172438    -0.73500
O1209       O  0.50549681  0.57784714  0.43348976    -0.52800
O1210       O  0.44005195  0.58837728  0.47475380    -0.97500
O1211       O  0.40672111  0.55213072  0.54739504    -0.54700
O1212       O  0.46646078  0.58925008  0.53760648    -0.74100
C1213       C  0.49351676  0.59710866  0.55029417     0.98300
O1214       O  0.58674303  0.53281465  0.56598357    -0.62900
O1215       O  0.48531808  0.41761959  0.57308332    -0.57700
O1216       O  0.54122824  0.51575204  0.58909138    -0.94400
O1217       O  0.50562648  0.47761144  0.59964072    -0.92800
O1218       O  0.55333555  0.40305254  0.52236423    -0.93100
O1219       O  0.59895133  0.44512934  0.51487417    -0.91900
C1220       C  0.52863939  0.49629849  0.60742100     1.17100
H1221       H  0.48279623  0.42042209  0.50674102     0.33100
H1222       H  0.57650026  0.50400628  0.48553271     0.43900
H1223       H  0.47533319  0.53185886  0.56872074     0.37500
H1224       H  0.45014680  0.52846529  0.44553621     0.33900
H1225       H  0.59221540  0.42316099  0.45091352     0.25700
H1226       H  0.52128136  0.58297561  0.41698556     0.31700
H1227       H  0.42753009  0.60340033  0.48740640     0.37600
H1228       H  0.54409201  0.40819749  0.54279584     0.32000
H1229       H  0.47104281  0.41628331  0.59147666     0.30900
H1230       H  0.43625088  0.46403103  0.60755764     0.32600
H1231       H  0.40144401  0.57425510  0.54715675     0.31600
H1232       H  0.60000518  0.46292025  0.52884776     0.35600
H1233       H  0.60468068  0.52321372  0.55367073     0.28300
H1234       H  0.40728192  0.44413782  0.42408636     0.32500
H1235       H  0.38677107  0.52207428  0.49093566     0.35400
H1236       H  0.47565226  0.40305017  0.55838613     0.28000
H1237       H  0.59206041  0.55476519  0.56694888     0.40900
H1238       H  0.57771667  0.50761487  0.41352311     0.30900
H1239       H  0.57551339  0.45031610  0.43327496     0.38500
H1240       H  0.41793271  0.54870442  0.56723622     0.30400
H1241       H  0.48408975  0.57546829  0.42287585     0.30400
H1242       H  0.39542529  0.47676281  0.43516696     0.30700
C1243       C  0.39853188  0.51095876  0.21675181     0.86200
C1244       C  0.37650719  0.53945049  0.22011830    -0.54100
C1245       C  0.35708715  0.54047140  0.24570705     0.09100
C1246       C  0.36060661  0.51105819  0.26577915     0.20000
C1247       C  0.41762394  0.50854351  0.24733961    -0.54800
C1248       C  0.39840566  0.50871028  0.27373506     0.09200
C1249       C  0.37490716  0.48382443  0.21906090    -0.54300
C1250       C  0.35455773  0.48382623  0.24370823     0.09800
H1251       H  0.37699817  0.55803852  0.20373080     0.14300
H1252       H  0.34338255  0.51058862  0.28522855     0.00000
H1253       H  0.44429653  0.50669871  0.24782188     0.14600
H1254       H  0.37574491  0.46433055  0.20364538     0.14400
C1255       C  0.99866141  0.78546690  0.93160867     0.86200
C1256       C  0.96946638  0.77978786  0.90893776    -0.54100
C1257       C  0.97451218  0.75613751  0.88823046     0.09100
C1258       C  0.00935377  0.74145395  0.89183749     0.20000
C1259       C  0.00441042  0.75411786  0.94596411    -0.54800
C1260       C  0.01005411  0.73091906  0.92575905     0.09200
C1261       C  0.02772233  0.79109966  0.91007673    -0.54300
C1262       C  0.03369812  0.76871978  0.88918469     0.09800
H1263       H  0.94652945  0.79278559  0.90890558     0.14300
H1264       H  0.01471507  0.72257139  0.87596861     0.00000
H1265       H  0.00195079  0.75025985  0.97045486     0.14600
H1266       H  0.04276107  0.81137465  0.91136064     0.14400
Zr1267     Zr  0.20137177  0.71962275  0.77334905     2.17500
O1268       O  0.14538702  0.69998881  0.77050274    -0.51700
O1269       O  0.21620235  0.70317107  0.82437882    -0.74900
O1270       O  0.20184582  0.66509320  0.76506872    -0.81600
O1271       O  0.16413588  0.79563115  0.79967905    -0.83400
O1272       O  0.24066672  0.65274440  0.72911446    -0.79000
O1273       O  0.15949303  0.74424164  0.80432027    -0.90600
O1274       O  0.26536543  0.72410906  0.83625548    -0.76600
O1275       O  0.25867613  0.70711313  0.77039199    -0.86100
O1276       O  0.22843838  0.76186191  0.79575872    -0.85800
O1277       O  0.21247831  0.71212958  0.71989855    -0.72500
O1278       O  0.18414326  0.76325990  0.74431835    -0.84700
Zr1279     Zr  0.28250026  0.78489331  0.70835875     2.26400
Zr1280     Zr  0.27048970  0.69991613  0.71698141     2.06300
Zr1281     Zr  0.21276404  0.80528098  0.76614602     2.10000
Zr1282     Zr  0.28565609  0.75002369  0.79188872     1.78800
O1283       O  0.17214850  0.84026715  0.74398890    -0.93500
O1284       O  0.32674579  0.71139100  0.80607685    -0.41300
O1285       O  0.27060750  0.79305507  0.76164874    -0.77900
O1286       O  0.29896666  0.74216925  0.73938109    -0.96600
O1287       O  0.25454932  0.74307564  0.68610276    -0.89900
O1288       O  0.22530145  0.79875989  0.71253349    -0.92800
C1289       C  0.24008262  0.70821099  0.84279111     1.01000
C1290       C  0.15040872  0.77158457  0.81081051     1.13900
C1291       C  0.21660134  0.64594015  0.74720075     1.04700
O1292       O  0.30894787  0.66015237  0.73369814    -0.94900
O1293       O  0.32513299  0.70629173  0.69273944    -0.90700
O1294       O  0.33099620  0.75752292  0.68832867    -0.83800
C1295       C  0.34185727  0.72999641  0.68547841     1.11300
O1296       O  0.14302631  0.73297741  0.69125426    -0.96900
Zr1297     Zr  0.19718774  0.75651488  0.69118679     1.88900
O1298       O  0.26636429  0.80116336  0.65728388    -0.73500
O1299       O  0.26230815  0.67740083  0.66654790    -0.52800
O1300       O  0.18736423  0.72305649  0.64767461    -0.97500
O1301       O  0.15452505  0.79564678  0.68325252    -0.54700
O1302       O  0.21565623  0.78379123  0.64645129    -0.74100
C1303       C  0.24163639  0.79856461  0.63931012     0.98300
O1304       O  0.33086356  0.81621397  0.69859445    -0.62900
O1305       O  0.21784416  0.83519011  0.81304920    -0.57700
O1306       O  0.28798289  0.83663493  0.72579998    -0.94400
O1307       O  0.24762655  0.85009620  0.75971665    -0.92800
O1308       O  0.28996739  0.78927654  0.83123828    -0.93100
O1309       O  0.34116865  0.77061788  0.79457022    -0.91900
C1310       C  0.27393033  0.85568409  0.74414477     1.17100
H1311       H  0.22196045  0.76488983  0.81687952     0.33100
H1312       H  0.32256769  0.73884577  0.73975095     0.43900
H1313       H  0.22061301  0.81738132  0.70149840     0.37500
H1314       H  0.19966698  0.69544889  0.71206335     0.33900
H1315       H  0.31444405  0.69206785  0.80681372     0.25700
H1316       H  0.27766876  0.68827734  0.65284856     0.31700
H1317       H  0.20969508  0.71634692  0.64087350     0.37600
H1318       H  0.28991600  0.80878652  0.81987260     0.32000
H1319       H  0.19621889  0.84579738  0.81563035     0.30900
H1320       H  0.15217530  0.82781383  0.74120029     0.32600
H1321       H  0.14332227  0.78953619  0.66410181     0.31600
H1322       H  0.34346489  0.78277245  0.77562061     0.35600
H1323       H  0.34901314  0.80747741  0.71117429     0.28300
H1324       H  0.14477580  0.68239260  0.78463821     0.32500
H1325       H  0.13185550  0.74100960  0.70989793     0.35400
H1326       H  0.21869148  0.82005078  0.82981853     0.28000
H1327       H  0.33760872  0.81251933  0.67706061     0.40900
H1328       H  0.32413344  0.67063119  0.74785471     0.30900
H1329       H  0.34127248  0.70915580  0.78788477     0.38500
H1330       H  0.16651703  0.81432825  0.67766156     0.30400
H1331       H  0.27189618  0.65656042  0.66819021     0.30400
H1332       H  0.14357043  0.69109694  0.74970477     0.30700
C1333       C  0.49521964  0.77792129  0.59732678     0.86200
C1334       C  0.52748781  0.77684827  0.61595781    -0.54100
C1335       C  0.53297274  0.75112184  0.63258634     0.09100
C1336       C  0.50399235  0.72834989  0.62984378     0.20000
C1337       C  0.49548418  0.74827345  0.57837478    -0.54800
C1338       C  0.50055962  0.72207418  0.59495403     0.09200
C1339       C  0.46872811  0.77323425  0.62194505    -0.54300
C1340       C  0.47216646  0.74686383  0.63809233     0.09800
H1341       H  0.54509022  0.79529956  0.61600768     0.14300
H1342       H  0.50716763  0.70788205  0.64435594     0.00000
H1343       H  0.49010028  0.74847023  0.55416101     0.14600
H1344       H  0.44788340  0.78843140  0.62587556     0.14400
C1345       C  0.41968496  0.71819351  0.63709774    -0.06100
C1346       C  0.44259594  0.73491820  0.65431916    -0.00200
C1347       C  0.43333781  0.74591299  0.68360313    -0.08700
C1348       C  0.40069597  0.74157754  0.69392428    -0.06100
C1349       C  0.37707647  0.72672085  0.67582652    -0.00200
C1350       C  0.38698536  0.71370354  0.64750460    -0.08700
C1351       C  0.36258291  0.69673171  0.62775250     0.61700
H1352       H  0.42683961  0.71063248  0.61435959     0.12400
H1353       H  0.39276868  0.75138041  0.71561035     0.12400
C1354       C  0.45748958  0.76360989  0.70301025     0.62000
F1355       F  0.37670459  0.68693653  0.60043027    -0.23200
F1356       F  0.33584502  0.71555629  0.62097256    -0.20500
F1357       F  0.35162416  0.67142512  0.64337072    -0.20200
F1358       F  0.46437336  0.79105880  0.68906887    -0.20300
F1359       F  0.48654700  0.74686500  0.70619459    -0.20600
F1360       F  0.44495836  0.76970098  0.73198768    -0.23300
C1361       C  0.09452536  0.79282732  0.82564655    -0.06100
C1362       C  0.12210547  0.77436269  0.83280651    -0.00200
C1363       C  0.12091166  0.75623071  0.85971029    -0.08700
C1364       C  0.09122137  0.75472439  0.87635651    -0.06100
C1365       C  0.06275085  0.77102319  0.86798870    -0.00200
C1366       C  0.06500829  0.79209986  0.84319777    -0.08700
C1367       C  0.03765998  0.81435006  0.83394810     0.61700
H1368       H  0.09571666  0.80747092  0.80571851     0.12400
H1369       H  0.09038044  0.74126031  0.89683679     0.12400
C1370       C  0.15081683  0.73841067  0.87131457     0.62000
F1371       F  0.04929706  0.84377931  0.83595213    -0.23200
F1372       F  0.00962118  0.81260034  0.85191486    -0.20500
F1373       F  0.02875562  0.80871481  0.80390818    -0.20200
F1374       F  0.17908368  0.75553703  0.86850477    -0.20300
F1375       F  0.15439373  0.71176396  0.85468063    -0.20600
F1376       F  0.14744476  0.73077227  0.90192423    -0.23300
C1377       C  0.51148635  0.65003535  0.54439338    -0.06100
C1378       C  0.49534805  0.62852300  0.56237940    -0.00200
C1379       C  0.48073279  0.63756670  0.59039415    -0.08700
C1380       C  0.48338441  0.66814356  0.59980766    -0.06100
C1381       C  0.49930572  0.69026784  0.58185206    -0.00200
C1382       C  0.51367203  0.68090451  0.55321842    -0.08700
C1383       C  0.52993900  0.70238818  0.53053946     0.61700
H1384       H  0.52167044  0.64246315  0.52260677     0.12400
H1385       H  0.47208218  0.67503131  0.62123270     0.12400
C1386       C  0.46215198  0.61503727  0.61006121     0.62000
F1387       F  0.55095370  0.68662939  0.51072297    -0.23200
F1388       F  0.54862165  0.72410324  0.54505992    -0.20500
F1389       F  0.50580978  0.71658497  0.51306873    -0.20200
F1390       F  0.48231977  0.59013313  0.61654034    -0.20300
F1391       F  0.43450111  0.60531595  0.59452665    -0.20600
F1392       F  0.45182742  0.62787694  0.63757955    -0.23300
C1393       C  0.42077145  0.51733891  0.36061166    -0.06100
C1394       C  0.45147928  0.50227997  0.36191955    -0.00200
C1395       C  0.46369206  0.48782421  0.33517547    -0.08700
C1396       C  0.44476093  0.48933474  0.30788113    -0.06100
C1397       C  0.41425700  0.50576616  0.30567026    -0.00200
C1398       C  0.40200333  0.51984783  0.33333842    -0.08700
C1399       C  0.36928387  0.53714497  0.33577148     0.61700
H1400       H  0.41125496  0.52696372  0.38183169     0.12400
H1401       H  0.45390928  0.47714136  0.28796288     0.12400
C1402       C  0.49652058  0.47064780  0.33573212     0.62000
F1403       F  0.36727597  0.55462334  0.36222228    -0.23200
F1404       F  0.34362139  0.51674583  0.33669508    -0.20500
F1405       F  0.36549685  0.55696108  0.31166904    -0.20200
F1406       F  0.49506550  0.44698980  0.35652368    -0.20300
F1407       F  0.52127439  0.49024883  0.34438428    -0.20600
F1408       F  0.50472871  0.45853596  0.30732068    -0.23300
C1409       C  0.33509758  0.37858452  0.51857031    -0.06100
C1410       C  0.30739692  0.39746196  0.51208019    -0.00200
C1411       C  0.31206191  0.42938522  0.50971029    -0.08700
C1412       C  0.34402860  0.44099989  0.51323232    -0.06100
C1413       C  0.37128036  0.42209486  0.51973062    -0.00200
C1414       C  0.36712673  0.39033387  0.52175961    -0.08700
C1415       C  0.39665086  0.36913313  0.52640920     0.61700
H1416       H  0.33136365  0.35440434  0.52158916     0.12400
H1417       H  0.34816369  0.46524461  0.51101610     0.12400
C1418       C  0.28338830  0.45156591  0.50663925     0.62000
F1419       F  0.38752336  0.33887451  0.52746108    -0.23200
F1420       F  0.41213998  0.37624000  0.55365558    -0.20500
F1421       F  0.41880187  0.37246274  0.50246967    -0.20200
F1422       F  0.26405578  0.44916529  0.53248206    -0.20300
F1423       F  0.26530327  0.44518737  0.48070760    -0.20600
F1424       F  0.29349884  0.48150168  0.50455014    -0.23300
C1425       C  0.14540418  0.43726911  0.46417266    -0.06100
C1426       C  0.14337438  0.46308563  0.48320799    -0.00200
C1427       C  0.16896014  0.46890970  0.50394872    -0.08700
C1428       C  0.19270256  0.44598812  0.50920914    -0.06100
C1429       C  0.19389930  0.41907513  0.49173136    -0.00200
C1430       C  0.17069678  0.41512211  0.46786567    -0.08700
C1431       C  0.17043236  0.38623200  0.44881150     0.61700
H1432       H  0.12522938  0.43314500  0.44850068     0.12400
H1433       H  0.20849608  0.44800848  0.52883120     0.12400
C1434       C  0.16994426  0.49878210  0.52129107     0.62000
F1435       F  0.14545506  0.38672221  0.42720318    -0.23200
F1436       F  0.16555000  0.36154114  0.46777159    -0.20500
F1437       F  0.20019816  0.38279502  0.43347845    -0.20200
F1438       F  0.14283880  0.50145229  0.54035748    -0.20300
F1439       F  0.16929375  0.52260005  0.50059922    -0.20600
F1440       F  0.19829341  0.50107658  0.53878765    -0.23300
C1441       C  0.46493189  0.52167086  0.15141528    -0.06100
C1442       C  0.44970861  0.50631485  0.12714042    -0.00200
C1443       C  0.41830080  0.49360191  0.13197654    -0.08700
C1444       C  0.40272076  0.49776131  0.16039126    -0.06100
C1445       C  0.41829821  0.51109904  0.18600137    -0.00200
C1446       C  0.44938258  0.52549339  0.18042695    -0.08700
C1447       C  0.46637488  0.54661067  0.20285498     0.61700
H1448       H  0.48862689  0.53205704  0.14709926     0.12400
H1449       H  0.37727301  0.49096073  0.16214553     0.12400
C1450       C  0.40128301  0.47472483  0.10754135     0.62000
F1451       F  0.48147969  0.57015469  0.18735319    -0.23200
F1452       F  0.49032891  0.53050403  0.21884551    -0.20500
F1453       F  0.44444843  0.56008641  0.22305491    -0.20200
F1454       F  0.42310019  0.45290413  0.09607629    -0.20300
F1455       F  0.39041016  0.49323995  0.08403708    -0.20600
F1456       F  0.37417182  0.45964672  0.11914297    -0.23300
C1457       C  0.02837811  0.64836185  0.94917704    -0.06100
C1458       C  0.99864689  0.64022287  0.96360151    -0.00200
C1459       C  0.97218714  0.66184857  0.96447402    -0.08700
C1460       C  0.97670114  0.69067065  0.95076953    -0.06100
C1461       C  0.00658966  0.69865905  0.93641059    -0.00200
C1462       C  0.03280633  0.67698405  0.93549464    -0.08700
C1463       C  0.06584692  0.68413763  0.92126436     0.61700
H1464       H  0.04855788  0.63182986  0.94881640     0.12400
H1465       H  0.95689663  0.70758296  0.95149307     0.12400
C1466       C  0.93937069  0.65476190  0.97953670     0.62000
F1467       F  0.08724418  0.65930647  0.92180732    -0.23200
F1468       F  0.08009197  0.70761060  0.93747308    -0.20500
F1469       F  0.06173590  0.69214735  0.89096693    -0.20200
F1470       F  0.94391727  0.65120446  0.01071619    -0.20300
F1471       F  0.92670377  0.62828637  0.96729366    -0.20600
F1472       F  0.91621149  0.67793922  0.97520233    -0.23300
C1473       C  0.47808968  0.32643975  0.40099685    -0.06100
C1474       C  0.50434629  0.30685115  0.40902608    -0.00200
C1475       C  0.53036602  0.31803133  0.42710293    -0.08700
C1476       C  0.52788569  0.34792604  0.43855316    -0.06100
C1477       C  0.50080823  0.36753000  0.43194690    -0.00200
C1478       C  0.47565220  0.35667887  0.41195761    -0.08700
C1479       C  0.44619789  0.37621435  0.40199141     0.61700
H1480       H  0.45893022  0.31749070  0.38643693     0.12400
H1481       H  0.54723661  0.35581953  0.45353438     0.12400
C1482       C  0.56060738  0.29865355  0.43483282     0.62000
F1483       F  0.42727889  0.36175823  0.38006130    -0.23200
F1484       F  0.45700103  0.40315620  0.38933221    -0.20500
F1485       F  0.42596492  0.38241851  0.42691852    -0.20200
F1486       F  0.58645080  0.31632767  0.44499997    -0.20300
F1487       F  0.57165875  0.28259788  0.40939225    -0.20600
F1488       F  0.55267142  0.27849970  0.45775659    -0.23300
C1489       C  0.52235516  0.81661245  0.56404557    -0.06100
C1490       C  0.49272576  0.80693065  0.57744933    -0.00200
C1491       C  0.46446708  0.82641709  0.57437987    -0.08700
C1492       C  0.46921403  0.85715411  0.56637142    -0.06100
C1493       C  0.50047253  0.86835677  0.55808203    -0.00200
C1494       C  0.52746340  0.84706730  0.55566422    -0.08700
C1495       C  0.56220282  0.85593747  0.54607831     0.61700
H1496       H  0.54267123  0.80030661  0.56255133     0.12400
H1497       H  0.44780160  0.87231586  0.56551263     0.12400
C1498       C  0.42902049  0.81548581  0.57502361     0.62000
F1499       F  0.58472256  0.83195347  0.54868159    -0.23200
F1500       F  0.57312774  0.87920412  0.56471995    -0.20500
F1501       F  0.56228668  0.86504232  0.51578809    -0.20200
F1502       F  0.41330031  0.82594020  0.60131602    -0.20300
F1503       F  0.42723521  0.78406529  0.57329212    -0.20600
F1504       F  0.41207280  0.82701711  0.54997749    -0.23300
C1505       C  0.51240510  0.15502346  0.45649444    -0.06100
C1506       C  0.48833447  0.13418622  0.44821866    -0.00200
C1507       C  0.46729936  0.14035130  0.42338661    -0.08700
C1508       C  0.47029321  0.16829109  0.40823491    -0.06100
C1509       C  0.49303332  0.19081685  0.41745545    -0.00200
C1510       C  0.51620885  0.18281979  0.44108235    -0.08700
C1511       C  0.54485533  0.20247906  0.45151865     0.61700
H1512       H  0.52861900  0.14905928  0.47535945     0.12400
H1513       H  0.45564511  0.17152502  0.38795676     0.12400
C1514       C  0.44263420  0.11699306  0.41231697     0.62000
F1515       F  0.56901701  0.18513354  0.46609227    -0.23200
F1516       F  0.53335806  0.22394057  0.47228801    -0.20500
F1517       F  0.56029870  0.21660958  0.42734161    -0.20200
F1518       F  0.41928653  0.11224611  0.43488648    -0.20300
F1519       F  0.45884981  0.08972859  0.40570325    -0.20600
F1520       F  0.42617838  0.12644094  0.38616015    -0.23300
C1521       C  0.33104919  0.06227314  0.01683359    -0.06100
C1522       C  0.36114770  0.07296951  0.02740773    -0.00200
C1523       C  0.36338909  0.10234130  0.04060570    -0.08700
C1524       C  0.33514286  0.12132591  0.04054535    -0.06100
C1525       C  0.30544196  0.11144907  0.02774774    -0.00200
C1526       C  0.30293069  0.08119476  0.01661009    -0.08700
C1527       C  0.27107804  0.06927902  0.00355785     0.61700
H1528       H  0.33016482  0.03933176  0.00760454     0.12400
H1529       H  0.33661228  0.14468931  0.04850476     0.12400
C1530       C  0.39564197  0.11364300  0.05381424     0.62000
F1531       F  0.26218260  0.08607723  0.97809568    -0.23200
F1532       F  0.24673483  0.07144773  0.02570506    -0.20500
F1533       F  0.27390527  0.03900437  0.99471374    -0.20200
F1534       F  0.41987142  0.11319782  0.03143141    -0.20300
F1535       F  0.40544526  0.09495797  0.07767970    -0.20600
F1536       F  0.39260320  0.14315965  0.06494412    -0.23300
C1537       C  0.04097988  0.01077445  0.31422970    -0.06100
C1538       C  0.07595107  0.01114931  0.31715897    -0.00200
C1539       C  0.08900850  0.01153946  0.34781395    -0.08700
C1540       C  0.06713624  0.00971881  0.37277830    -0.06100
C1541       C  0.03274950  0.00809403  0.36972891    -0.00200
C1542       C  0.01924490  0.00955745  0.33987819    -0.08700
C1543       C  0.98213646  0.00978618  0.33506933     0.61700
H1544       H  0.03010067  0.01191009  0.29183620     0.12400
H1545       H  0.07747624  0.00966903  0.39570560     0.12400
C1546       C  0.12522173  0.01406942  0.35763961     0.62000
F1547       F  0.97390919  0.00909363  0.30430914    -0.23200
F1548       F  0.96847977  0.03607931  0.34770556    -0.20500
F1549       F  0.96846450  0.98462000  0.34894068    -0.20200
F1550       F  0.12836316  0.03989140  0.37566959    -0.20300
F1551       F  0.14821079  0.01593430  0.33456961    -0.15800
F1552       F  0.13376116  0.98886661  0.37506312    -0.23300
C1553       C  0.34682322  0.43371732  0.26849466    -0.06100
C1554       C  0.33371724  0.45630283  0.24914426    -0.00200
C1555       C  0.30676822  0.44856683  0.22981323    -0.08700
C1556       C  0.29453531  0.41852178  0.23016320    -0.06100
C1557       C  0.30809504  0.39568131  0.24902248    -0.00200
C1558       C  0.33487176  0.40352889  0.26867903    -0.08700
C1559       C  0.35242251  0.37985449  0.28850468     0.61700
H1560       H  0.36794705  0.43958634  0.28239331     0.12400
H1561       H  0.27387714  0.41290053  0.21552435     0.12400
C1562       C  0.28987746  0.47089402  0.20822687     0.62000
F1563       F  0.38137256  0.39089657  0.30087858    -0.23200
F1564       F  0.36058008  0.35439308  0.27108692    -0.20500
F1565       F  0.33227644  0.37150525  0.31256551    -0.20200
F1566       F  0.29342132  0.46046731  0.17842876    -0.20300
F1567       F  0.30236379  0.49996112  0.20994431    -0.20600
F1568       F  0.25653390  0.47269672  0.21531690    -0.23300
C1569       C  0.26731849  0.31172103  0.40718313    -0.06100
C1570       C  0.23918241  0.29522996  0.39840480    -0.00200
C1571       C  0.21221281  0.29417601  0.41915352    -0.08700
C1572       C  0.21398516  0.31103344  0.44686645    -0.06100
C1573       C  0.24145596  0.32914890  0.45437825    -0.00200
C1574       C  0.26922078  0.32834219  0.43465589    -0.08700
C1575       C  0.30168416  0.34305974  0.44319765     0.61700
H1576       H  0.28807314  0.31212071  0.39171765     0.12400
H1577       H  0.19358065  0.31038316  0.46290887     0.12400
C1578       C  0.18168147  0.27581204  0.41213576     0.62000
F1579       F  0.32701260  0.33473598  0.42349575    -0.23200
F1580       F  0.31079748  0.33379579  0.47217928    -0.20500
F1581       F  0.29886959  0.37439808  0.44218132    -0.20200
F1582       F  0.19041100  0.24527873  0.40968017    -0.20300
F1583       F  0.16762951  0.28557754  0.38495473    -0.20600
F1584       F  0.15797578  0.27876487  0.43495521    -0.23300
C1585       C  0.40469498  0.27666129  0.29961471    -0.06100
C1586       C  0.37692392  0.28136240  0.31844138    -0.00200
C1587       C  0.38052324  0.28132071  0.35055148    -0.08700
C1588       C  0.41151963  0.27402710  0.36293266    -0.06100
C1589       C  0.43864342  0.26638137  0.34417045    -0.00200
C1590       C  0.43580615  0.26904087  0.31190116    -0.08700
C1591       C  0.46422226  0.26147745  0.29027149     0.61700
H1592       H  0.40114968  0.27688107  0.27501750     0.12400
H1593       H  0.41453027  0.27277799  0.38756321     0.12400
C1594       C  0.35153040  0.28810260  0.37150765     0.62000
F1595       F  0.45557166  0.26579945  0.25989542    -0.23200
F1596       F  0.47348894  0.23134371  0.29377191    -0.20500
F1597       F  0.49080934  0.27984942  0.29626820    -0.20200
F1598       F  0.32600167  0.26832056  0.36555938    -0.20300
F1599       F  0.34102237  0.31778593  0.36638573    -0.20600
F1600       F  0.35992832  0.28510783  0.40208637    -0.23300
C1601       C  0.19276198  0.11351373  0.28416103    -0.06100
C1602       C  0.17499145  0.13612864  0.26794546    -0.00200
C1603       C  0.14818010  0.12675749  0.24924589    -0.08700
C1604       C  0.14134658  0.09539294  0.24616349    -0.06100
C1605       C  0.15896979  0.07282484  0.26224915    -0.00200
C1606       C  0.18529980  0.08206572  0.28156661    -0.08700
C1607       C  0.20591762  0.05959693  0.30007534     0.61700
H1608       H  0.21313592  0.12038558  0.29856367     0.12400
H1609       H  0.12046227  0.08828329  0.23255326     0.12400
C1610       C  0.12485725  0.14988269  0.23454566     0.62000
F1611       F  0.23912950  0.06555212  0.29603687    -0.23200
F1612       F  0.20095530  0.02969181  0.29136378    -0.20500
F1613       F  0.19814157  0.06276706  0.33080939    -0.20200
F1614       F  0.13983590  0.16300654  0.20954359    -0.20300
F1615       F  0.11622643  0.17232636  0.25558648    -0.20600
F1616       F  0.09599925  0.13654815  0.22459692    -0.23300
C1617       C  0.23666940  0.24150404  0.09989308    -0.06100
C1618       C  0.25887014  0.23222681  0.12253298    -0.00200
C1619       C  0.28031029  0.20692974  0.11715918    -0.08700
C1620       C  0.27834592  0.19131591  0.08897183    -0.06100
C1621       C  0.25517502  0.19987585  0.06658578    -0.00200
C1622       C  0.23378078  0.22546921  0.07214930    -0.08700
C1623       C  0.20638272  0.23495586  0.05026008     0.61700
H1624       H  0.22005281  0.26047893  0.10503711     0.12400
H1625       H  0.29455884  0.17193581  0.08438722     0.12400
C1626       C  0.30486684  0.19648195  0.14130629     0.62000
F1627       F  0.18469741  0.25600094  0.06341574    -0.23200
F1628       F  0.18824738  0.20982295  0.04197243    -0.20500
F1629       F  0.21965616  0.24839511  0.02458767    -0.20200
F1630       F  0.28820718  0.18631975  0.16690203    -0.20300
F1631       F  0.32467599  0.22056319  0.14954424    -0.20600
F1632       F  0.32509417  0.17290218  0.13077187    -0.23300
C1633       C  0.01941368  0.84725574  0.99275731    -0.06100
C1634       C  0.98974987  0.86389425  0.99405845    -0.00200
C1635       C  0.96133432  0.85125649  0.98045210    -0.08700
C1636       C  0.96483893  0.82555910  0.96132100    -0.06100
C1637       C  0.99557618  0.81063179  0.95649541    -0.00200
C1638       C  0.02290654  0.82031106  0.97517545    -0.08700
C1639       C  0.05707253  0.80513202  0.97748178     0.61700
H1640       H  0.04094293  0.85653190  0.00400264     0.12400
H1641       H  0.94282713  0.81735102  0.95045805     0.12400
C1642       C  0.92703799  0.86505083  0.98484317     0.62000
F1643       F  0.06395343  0.79962125  0.00803976    -0.23200
F1644       F  0.08050219  0.82480357  0.96614704    -0.20500
F1645       F  0.06077232  0.77778565  0.96227790    -0.20200
F1646       F  0.91839992  0.88197897  0.95934185    -0.20300
F1647       F  0.92555625  0.88352890  0.01049776    -0.20600
F1648       F  0.90422383  0.84219552  0.98880686    -0.23300
C1649       C  0.18940302  0.09919504  0.98950290    -0.06100
C1650       C  0.19649537  0.11556957  0.01656522    -0.00200
C1651       C  0.17895422  0.10782887  0.04370657    -0.08700
C1652       C  0.15507261  0.08468288  0.04214035    -0.06100
C1653       C  0.14676040  0.07001059  0.01447234    -0.00200
C1654       C  0.16430545  0.07769965  0.98748477    -0.08700
C1655       C  0.15609557  0.06466657  0.95608838     0.61700
H1656       H  0.20383467  0.10333403  0.96917164     0.12400
H1657       H  0.14192350  0.07838093  0.06276396     0.12400
C1658       C  0.18436898  0.12331619  0.07440437     0.62000
F1659       F  0.17445168  0.07765183  0.93283503    -0.23200
F1660       F  0.12312051  0.07029533  0.94954038    -0.20500
F1661       F  0.16279182  0.03365896  0.95568128    -0.20200
F1662       F  0.18895930  0.15421489  0.07074536    -0.20300
F1663       F  0.21149923  0.11022213  0.08870028    -0.20600
F1664       F  0.15737126  0.11993589  0.09362298    -0.23300
C1665       C  0.10142544  0.99661393  0.14237134    -0.06100
C1666       C  0.06768534  0.00113483  0.13742893    -0.00200
C1667       C  0.04768655  0.01148811  0.16192233    -0.08700
C1668       C  0.06226110  0.01700396  0.19070925    -0.06100
C1669       C  0.09608777  0.01086998  0.19712601    -0.00200
C1670       C  0.11647429  0.00145473  0.17129405    -0.08700
C1671       C  0.15392095  0.99763409  0.17205229     0.61700
H1672       H  0.11612015  0.98999445  0.12259152     0.12400
H1673       H  0.04663515  0.02664662  0.20840064     0.12400
C1674       C  0.01068531  0.01599643  0.15771473     0.62000
F1675       F  0.16691405  0.98753937  0.14432928    -0.23200
F1676       F  0.16313850  0.97620562  0.19351382    -0.20500
F1677       F  0.16808852  0.02551819  0.17793327    -0.20200
F1678       F  0.99687052  0.98846251  0.14968416    -0.20300
F1679       F  0.00447057  0.03701166  0.13484524    -0.20600
F1680       F  0.99529827  0.02639578  0.18422441    -0.23300
C1681       C  0.97487463  0.32441499  0.05975051    -0.06100
C1682       C  0.00665635  0.31140556  0.06037820    -0.00200
C1683       C  0.03280291  0.32568686  0.04454228    -0.08700
C1684       C  0.02573768  0.35205660  0.02747714    -0.06100
C1685       C  0.99367628  0.36458381  0.02615115    -0.00200
C1686       C  0.96747537  0.35004947  0.04184062    -0.08700
C1687       C  0.93114459  0.35936112  0.03940895     0.61700
H1688       H  0.95504578  0.31323728  0.07180137     0.12400
H1689       H  0.04577218  0.36368894  0.01608248     0.12400
C1690       C  0.06852672  0.31459198  0.04542582     0.62000
F1691       F  0.91311979  0.33441280  0.03021399    -0.23200
F1692       F  0.92515577  0.38228448  0.01840511    -0.20500
F1693       F  0.91969998  0.36886646  0.06782556    -0.20200
F1694       F  0.07796721  0.30491638  0.01646457    -0.20300
F1695       F  0.07380177  0.29096107  0.06578941    -0.20600
F1696       F  0.08848719  0.33837929  0.05424362    -0.23300
C1697       C  0.08531946  0.23273709  0.18104857    -0.06100
C1698       C  0.10204832  0.26047566  0.18203416    -0.00200
C1699       C  0.09163752  0.28467907  0.16259521    -0.08700
C1700       C  0.06537461  0.27976745  0.14222766    -0.06100
C1701       C  0.04971847  0.25159549  0.14023959    -0.00200
C1702       C  0.05869655  0.22803317  0.16106579    -0.08700
C1703       C  0.04096230  0.19792006  0.16398250     0.61700
H1704       H  0.09305816  0.21448146  0.19627501     0.12400
H1705       H  0.05799444  0.29753479  0.12637645     0.12400
C1706       C  0.10931415  0.31494438  0.16177519     0.62000
F1707       F  0.03189090  0.19370905  0.19426542    -0.23200
F1708       F  0.06215893  0.17433802  0.15532074    -0.20500
F1709       F  0.01256635  0.19655415  0.14658059    -0.20200
F1710       F  0.14274929  0.30999546  0.15673255    -0.20300
F1711       F  0.10461206  0.33014251  0.18925761    -0.20600
F1712       F  0.09754298  0.33368007  0.13862661    -0.23300
C1713       C  0.99601818  0.16275817  0.00394543    -0.06100
C1714       C  0.02459226  0.14506877  0.00830744    -0.00200
C1715       C  0.05205189  0.15809064  0.02294894    -0.08700
C1716       C  0.04721258  0.18526044  0.03921126    -0.06100
C1717       C  0.01612559  0.20020091  0.04030313    -0.00200
C1718       C  0.99201524  0.19127370  0.01822535    -0.08700
C1719       C  0.96214116  0.20995261  0.00792587     0.61700
H1720       H  0.97590935  0.15363865  0.99051348     0.12400
H1721       H  0.06818659  0.19459559  0.05107226     0.12400
C1722       C  0.08648784  0.14390079  0.02248063     0.62000
F1723       F  0.96342656  0.21302341  0.97639163    -0.23200
F1724       F  0.96052211  0.23889946  0.02007336    -0.20500
F1725       F  0.93355539  0.19481660  0.01549626    -0.20200
F1726       F  0.08924549  0.12000521  0.00183364    -0.20300
F1727       F  0.09442174  0.13350522  0.05145920    -0.20600
F1728       F  0.10908565  0.16567389  0.01392038    -0.23300
C1729       C  0.96203074  0.31943310  0.57499096    -0.06100
C1730       C  0.99177799  0.30955114  0.58873357    -0.00200
C1731       C  0.01830330  0.33029398  0.59048041    -0.08700
C1732       C  0.01359243  0.36011047  0.57916081    -0.06100
C1733       C  0.98391534  0.37022236  0.56524625    -0.00200
C1734       C  0.95749275  0.34927064  0.56319844    -0.08700
C1735       C  0.92482351  0.35777330  0.54822591     0.61700
H1736       H  0.94203954  0.30337384  0.57369174     0.12400
H1737       H  0.03369365  0.37595340  0.58109801     0.12400
C1738       C  0.05231767  0.32099748  0.60236773     0.62000
F1739       F  0.90367888  0.33330455  0.54678301    -0.23200
F1740       F  0.93033436  0.36757575  0.51858236    -0.20500
F1741       F  0.90917155  0.38065607  0.56495899    -0.20200
F1742       F  0.06285032  0.29455833  0.58798958    -0.20300
F1743       F  0.05148042  0.31656661  0.63361518    -0.20600
F1744       F  0.07571631  0.34297060  0.59659585    -0.23300
C1745       C  0.97033355  0.19017281  0.55559373    -0.06100
C1746       C  0.97243981  0.19178532  0.58782194    -0.00200
C1747       C  0.96840192  0.16388651  0.60488410    -0.08700
C1748       C  0.96463192  0.13643209  0.58852952    -0.06100
C1749       C  0.96530688  0.13506652  0.55660688    -0.00200
C1750       C  0.96696776  0.16247265  0.53968465    -0.08700
C1751       C  0.96493475  0.16437954  0.50496928     0.61700
H1752       H  0.97260468  0.21041639  0.54192938     0.12400
H1753       H  0.96243002  0.11508751  0.60066532     0.12400
C1754       C  0.96757279  0.16152907  0.64004920     0.62000
F1755       F  0.93786700  0.18237645  0.49712335    -0.23200
F1756       F  0.96165405  0.13649457  0.49071237    -0.20500
F1757       F  0.99321118  0.17773568  0.49373659    -0.20200
F1758       F  0.99432000  0.17516905  0.65348294    -0.20300
F1759       F  0.96840172  0.13154146  0.64981418    -0.20600
F1760       F  0.93872636  0.17438869  0.65152188    -0.23300
C1761       C  0.11707467  0.22859394  0.65482595    -0.06100
C1762       C  0.11672520  0.23429539  0.68641952    -0.00200
C1763       C  0.08667950  0.24425631  0.70043777    -0.08700
C1764       C  0.05823715  0.24853234  0.68215677    -0.06100
C1765       C  0.05857048  0.24303757  0.65050060    -0.00200
C1766       C  0.08886001  0.23322054  0.63638284    -0.08700
C1767       C  0.09391250  0.22809798  0.60212875     0.61700
H1768       H  0.14025132  0.22172686  0.64409366     0.12400
H1769       H  0.03510911  0.25553032  0.69265323     0.12400
C1770       C  0.08427933  0.24926842  0.73478543     0.62000
F1771       F  0.12039076  0.24510986  0.59224668    -0.23200
F1772       F  0.06712789  0.23638461  0.58437580    -0.20500
F1773       F  0.10104597  0.19758397  0.59687139    -0.20200
F1774       F  0.10350898  0.27346806  0.74339364    -0.20300
F1775       F  0.09511641  0.22330065  0.74982906    -0.20600
F1776       F  0.05214236  0.25563220  0.74412933    -0.23300
C1777       C  0.23144807  0.34258897  0.62603224    -0.06100
C1778       C  0.23199346  0.31081830  0.62725585    -0.00200
C1779       C  0.22331868  0.29358561  0.60137171    -0.08700
C1780       C  0.21888175  0.30874676  0.57350520    -0.06100
C1781       C  0.22344028  0.34043872  0.57079410    -0.00200
C1782       C  0.22591203  0.35815476  0.59842807    -0.08700
C1783       C  0.22063802  0.39280993  0.60015695     0.61700
H1784       H  0.23515251  0.35505320  0.64719079     0.12400
H1785       H  0.21243235  0.29530510  0.55390770     0.12400
C1786       C  0.21846006  0.25938592  0.60340736     0.62000
F1787       F  0.22714904  0.40410390  0.62916414    -0.23200
F1788       F  0.18798524  0.39989148  0.59378330    -0.20500
F1789       F  0.24072336  0.40824876  0.58014987    -0.20200
F1790       F  0.19475193  0.25329987  0.62535569    -0.20300
F1791       F  0.24786356  0.24510334  0.61138560    -0.20600
F1792       F  0.20811847  0.24708545  0.57586854    -0.23300
C1793       C  0.23698385  0.20827155  0.90527302    -0.06100
C1794       C  0.26624036  0.20314266  0.88872313    -0.00200
C1795       C  0.29471611  0.19232550  0.90397799    -0.08700
C1796       C  0.29215313  0.18573993  0.93539974    -0.06100
C1797       C  0.26173249  0.18798689  0.95155921    -0.00200
C1798       C  0.23437460  0.20236643  0.93651158    -0.08700
C1799       C  0.20158381  0.21245686  0.95089543     0.61700
H1800       H  0.21553977  0.21773838  0.89359932     0.12400
H1801       H  0.31433754  0.17894675  0.94731147     0.12400
C1802       C  0.32753722  0.18791813  0.88739558     0.62000
F1803       F  0.19544543  0.24275891  0.94382589    -0.23200
F1804       F  0.20057709  0.21024614  0.98220585    -0.20500
F1805       F  0.17639556  0.19517500  0.93884852    -0.20200
F1806       F  0.33622973  0.21462298  0.87297100    -0.20300
F1807       F  0.32489403  0.16494439  0.86582096    -0.20600
F1808       F  0.35279622  0.17986285  0.90723193    -0.23300
C1809       C  0.49285372  0.32308368  0.90581787    -0.06100
C1810       C  0.51064434  0.30259915  0.92459609    -0.00200
C1811       C  0.52922045  0.31443856  0.94974874    -0.08700
C1812       C  0.52752672  0.34592181  0.95552012    -0.06100
C1813       C  0.50906299  0.36579824  0.93718667    -0.00200
C1814       C  0.49195465  0.35458957  0.91153639    -0.08700
C1815       C  0.47307827  0.37589573  0.89026367     0.61700
H1816       H  0.47855240  0.31416824  0.88700020     0.12400
H1817       H  0.54035654  0.35516924  0.97520518     0.12400
C1818       C  0.55134797  0.29651775  0.97174949     0.62000
F1819       F  0.45929515  0.36042263  0.86585054    -0.23200
F1820       F  0.49434481  0.39740188  0.87864453    -0.20500
F1821       F  0.44777516  0.39055579  0.90605181    -0.20200
F1822       F  0.58214223  0.30983330  0.97268115    -0.20300
F1823       F  0.55645406  0.26632062  0.96422588    -0.20600
F1824       F  0.53762234  0.29796068  0.00080524    -0.23300
C1825       C  0.46653716  0.15272782  0.97897993    -0.06100
C1826       C  0.49652772  0.13831522  0.98700069    -0.00200
C1827       C  0.52652654  0.15316225  0.98090425    -0.08700
C1828       C  0.52547547  0.18003416  0.96341618    -0.06100
C1829       C  0.49562293  0.19186865  0.95111269    -0.00200
C1830       C  0.46556595  0.18060789  0.96325916    -0.08700
C1831       C  0.43262781  0.19771870  0.96287663     0.61700
H1832       H  0.44347536  0.14220711  0.98537239     0.12400
H1833       H  0.54839415  0.19119592  0.95797177     0.12400
C1834       C  0.55950791  0.13980866  0.99112155     0.62000
F1835       F  0.41158549  0.18406805  0.94227344    -0.23200
F1836       F  0.43584040  0.22819140  0.95572692    -0.20500
F1837       F  0.41831343  0.19658740  0.99170143    -0.20200
F1838       F  0.56405351  0.11104440  0.97857865    -0.20300
F1839       F  0.56007280  0.13788162  0.02272618    -0.20600
F1840       F  0.58576045  0.15756003  0.98206247    -0.23300
C1841       C  0.41171525  0.24756293  0.81496455    -0.06100
C1842       C  0.38552513  0.26450422  0.82851243    -0.00200
C1843       C  0.38980498  0.27612903  0.85860072    -0.08700
C1844       C  0.41960641  0.26939916  0.87436152    -0.06100
C1845       C  0.44493381  0.25124021  0.86121789    -0.00200
C1846       C  0.44131818  0.24071533  0.83081574    -0.08700
C1847       C  0.46810479  0.22114667  0.81582652     0.61700
H1848       H  0.40809961  0.23839899  0.79215986     0.12400
H1849       H  0.42288094  0.27724203  0.89770099     0.12400
C1850       C  0.36243112  0.29415591  0.87458487     0.62000
F1851       F  0.46053292  0.21408579  0.78574094    -0.23200
F1852       F  0.47198513  0.19417988  0.83186040    -0.20500
F1853       F  0.49766025  0.23653570  0.81592582    -0.20200
F1854       F  0.33421318  0.27687477  0.87643337    -0.20300
F1855       F  0.35548762  0.32043534  0.85828546    -0.20600
F1856       F  0.37123107  0.30249963  0.90404599    -0.23300
C1857       C  0.58075796  0.99844863  0.37718741    -0.06100
C1858       C  0.54645087  0.00359390  0.37635809    -0.00200
C1859       C  0.53180596  0.01005587  0.34771684    -0.08700
C1860       C  0.55209421  0.01123020  0.32105020    -0.06100
C1861       C  0.58692525  0.00601890  0.32151077    -0.00200
C1862       C  0.60145341  0.00042597  0.35110030    -0.08700
C1863       C  0.63820772  0.99480829  0.35735223     0.61700
H1864       H  0.59180853  0.99341035  0.39925369     0.12400
H1865       H  0.54031300  0.01746064  0.29990200     0.12400
C1866       C  0.49498948  0.01667922  0.34554814     0.62000
F1867       F  0.64433064  0.96375556  0.35915084    -0.23200
F1868       F  0.64691329  0.00785448  0.38507359    -0.20500
F1869       F  0.65880893  0.00701346  0.33565771    -0.20200
F1870       F  0.48684524  0.04180562  0.36342468    -0.20300
F1871       F  0.47765871  0.99177667  0.35581716    -0.20600
F1872       F  0.48520529  0.02266034  0.31576776    -0.23300
C1873       C  0.61151283  0.99405586  0.17852660    -0.06100
C1874       C  0.59484593  0.01042769  0.20182921    -0.00200
C1875       C  0.56811451  0.03020878  0.19326352    -0.08700
C1876       C  0.55671312  0.02962797  0.16269112    -0.06100
C1877       C  0.57205883  0.01155087  0.13997805    -0.00200
C1878       C  0.60098903  0.99451085  0.14776620    -0.08700
C1879       C  0.62126195  0.97710861  0.12387303     0.61700
H1880       H  0.63269213  0.98001832  0.18461564     0.12400
H1881       H  0.53511046  0.04313043  0.15644907     0.12400
C1882       C  0.55192354  0.05296121  0.21523246     0.62000
F1883       F  0.65210024  0.96860747  0.13496034    -0.23200
F1884       F  0.62611375  0.99512107  0.09833746    -0.20500
F1885       F  0.60510051  0.95092768  0.11541589    -0.20200
F1886       F  0.57493791  0.06519274  0.23494331    -0.20300
F1887       F  0.52740636  0.03890949  0.23186662    -0.20600
F1888       F  0.53753125  0.07705932  0.19944076    -0.23300
C1889       C  0.70752871  0.10248595  0.25662743    -0.06100
C1890       C  0.69540392  0.11778639  0.23041689    -0.00200
C1891       C  0.67079248  0.10333385  0.21271164    -0.08700
C1892       C  0.65726965  0.07569104  0.22341497    -0.06100
C1893       C  0.66748748  0.06203405  0.25107104    -0.00200
C1894       C  0.69410769  0.07494438  0.26724473    -0.08700
C1895       C  0.70841813  0.05974106  0.29556776     0.61700
H1896       H  0.72693643  0.11312327  0.26971527     0.12400
H1897       H  0.63769162  0.06498983  0.21066005     0.12400
C1898       C  0.65817398  0.11731856  0.18322367     0.62000
F1899       F  0.73729276  0.07340049  0.30500608    -0.23200
F1900       F  0.71561123  0.02938968  0.28938909    -0.20500
F1901       F  0.68598492  0.06173184  0.31942126    -0.20200
F1902       F  0.68405808  0.11969328  0.16263684    -0.20300
F1903       F  0.64474999  0.14594601  0.18905893    -0.20600
F1904       F  0.63400989  0.09976941  0.16975340    -0.23300
C1905       C  0.59107876  0.22282860  0.29579468    -0.06100
C1906       C  0.61113594  0.24842162  0.29801414    -0.00200
C1907       C  0.60235952  0.27252348  0.31829419    -0.08700
C1908       C  0.57329241  0.27011340  0.33561802    -0.06100
C1909       C  0.55346177  0.24428738  0.33384580    -0.00200
C1910       C  0.56181564  0.22047714  0.31285780    -0.08700
C1911       C  0.54105841  0.19250782  0.30658437     0.61700
H1912       H  0.59811600  0.20461512  0.28007588     0.12400
H1913       H  0.56629967  0.28818579  0.35141349     0.12400
C1914       C  0.62395473  0.30024991  0.32246931     0.62000
F1915       F  0.55837160  0.16668586  0.31572707    -0.23200
F1916       F  0.53510402  0.19045836  0.27544355    -0.20500
F1917       F  0.51077257  0.19289850  0.32115576    -0.20200
F1918       F  0.62140858  0.31861888  0.29691209    -0.20300
F1919       F  0.65661737  0.29132476  0.32652365    -0.20600
F1920       F  0.61449533  0.31738581  0.34782973    -0.23300
C1921       C  0.88115292  0.25609711  0.12932811    -0.06100
C1922       C  0.88664723  0.25626258  0.16105885    -0.00200
C1923       C  0.91935052  0.25483677  0.17234575    -0.08700
C1924       C  0.94561151  0.25266084  0.15124648    -0.06100
C1925       C  0.94016321  0.25121525  0.11949991    -0.00200
C1926       C  0.90731829  0.25325368  0.10817121    -0.08700
C1927       C  0.89926717  0.25176396  0.07424670     0.61700
H1928       H  0.85585437  0.25696609  0.12121944     0.12400
H1929       H  0.97080304  0.25122925  0.15951651     0.12400
C1930       C  0.92653378  0.25590762  0.20642196     0.62000
F1931       F  0.86724878  0.26168297  0.06839335    -0.23200
F1932       F  0.90224673  0.22199694  0.06415153    -0.20500
F1933       F  0.92023211  0.26996565  0.05766065    -0.20200
F1934       F  0.91582511  0.22946354  0.22009846    -0.20300
F1935       F  0.91042585  0.28077977  0.21957746    -0.20600
F1936       F  0.96000662  0.25843947  0.21221472    -0.23300
C1937       C  0.93598980  0.49942580  0.30738371    -0.06100
C1938       C  0.90216492  0.50764739  0.30509493    -0.00200
C1939       C  0.88409002  0.51247101  0.33330759    -0.08700
C1940       C  0.90133838  0.51115489  0.36129768    -0.06100
C1941       C  0.93475489  0.50294489  0.36313017    -0.00200
C1942       C  0.95253437  0.49683937  0.33569004    -0.08700
C1943       C  0.98888337  0.48758236  0.33598021     0.61700
H1944       H  0.94951280  0.49318741  0.28696986     0.12400
H1945       H  0.88836730  0.51581032  0.38260246     0.12400
C1946       C  0.84688462  0.51928228  0.33563090     0.62000
F1947       F  0.00252908  0.48716941  0.30683190    -0.23200
F1948       F  0.99238925  0.45861208  0.34794716    -0.20500
F1949       F  0.00652470  0.50796435  0.35351681    -0.20200
F1950       F  0.83497480  0.51381367  0.36488227    -0.20300
F1951       F  0.82892360  0.50115656  0.31617410    -0.20600
F1952       F  0.84039941  0.54961661  0.32937166    -0.23300
C1953       C  0.94503179  0.50128793  0.14317227    -0.06100
C1954       C  0.92588633  0.51844277  0.12245154    -0.00200
C1955       C  0.89687181  0.53330208  0.13318380    -0.08700
C1956       C  0.88716430  0.52912980  0.16403692    -0.06100
C1957       C  0.90565169  0.51099524  0.18484403    -0.00200
C1958       C  0.93614460  0.49776349  0.17431887    -0.08700
C1959       C  0.96089686  0.48150035  0.19515061     0.61700
H1960       H  0.96766995  0.49079383  0.13458537     0.12400
H1961       H  0.86486078  0.54044938  0.17216725     0.12400
C1962       C  0.87605064  0.55302229  0.11196780     0.62000
F1963       F  0.98313211  0.46372247  0.17845927    -0.23200
F1964       F  0.94572530  0.46240355  0.21570697    -0.20500
F1965       F  0.97871017  0.50300930  0.21102902    -0.20200
F1966       F  0.86685583  0.53632282  0.08651949    -0.20300
F1967       F  0.89422103  0.57777212  0.10261556    -0.20600
F1968       F  0.84757084  0.56389841  0.12622334    -0.23300
C1969       C  0.80634266  0.43838334  0.25898894    -0.06100
C1970       C  0.82940106  0.44716829  0.23660415    -0.00200
C1971       C  0.83885864  0.42530490  0.21395712    -0.08700
C1972       C  0.82761478  0.39500692  0.21655146    -0.06100
C1973       C  0.80628620  0.38565897  0.24022304    -0.00200
C1974       C  0.79394926  0.40844186  0.26076859    -0.08700
C1975       C  0.76684134  0.40186536  0.28373756     0.61700
H1976       H  0.79886194  0.45521450  0.27597054     0.12400
H1977       H  0.83610161  0.37802263  0.20015594     0.12400
C1978       C  0.86166784  0.43321076  0.18770494     0.62000
F1979       F  0.75511960  0.42817307  0.29795917    -0.23200
F1980       F  0.77870517  0.38251884  0.30622065    -0.20500
F1981       F  0.74055206  0.38869242  0.26876504    -0.20200
F1982       F  0.89181852  0.44139309  0.19918047    -0.20300
F1983       F  0.84823199  0.45697388  0.17093790    -0.20600
F1984       F  0.86690261  0.40887741  0.16788068    -0.23300
C1985       C  0.26727233  0.84368284  0.56765858    -0.06100
C1986       C  0.23844784  0.84206290  0.55018060    -0.00200
C1987       C  0.21100423  0.82581761  0.56149147    -0.08700
C1988       C  0.21333148  0.81256477  0.59067759    -0.06100
C1989       C  0.24232348  0.81379775  0.60853270    -0.00200
C1990       C  0.27025695  0.82927743  0.59633394    -0.08700
C1991       C  0.30338014  0.83060905  0.61267236     0.61700
H1992       H  0.28786559  0.85605063  0.55816467     0.12400
H1993       H  0.19224540  0.80045845  0.59943947     0.12400
C1994       C  0.17952272  0.82148249  0.54297528     0.62000
F1995       F  0.32714954  0.84503839  0.59530840    -0.23200
F1996       F  0.31502812  0.80134674  0.61844936    -0.20500
F1997       F  0.29987622  0.84673741  0.63980658    -0.20200
F1998       F  0.18515102  0.80002057  0.52025178    -0.20300
F1999       F  0.16920622  0.84852329  0.52975359    -0.20600
F2000       F  0.15380988  0.81124922  0.56103712    -0.23300
C2001       C  0.16924235  0.91567592  0.53844278    -0.06100
C2002       C  0.18526528  0.92372910  0.51089486    -0.00200
C2003       C  0.17034033  0.94648956  0.49218204    -0.08700
C2004       C  0.13908949  0.95811134  0.50031332    -0.06100
C2005       C  0.12076811  0.94667790  0.52506641    -0.00200
C2006       C  0.13657491  0.92604204  0.54539445    -0.08700
C2007       C  0.11844943  0.91378740  0.57305044     0.61700
H2008       H  0.18128158  0.89909969  0.55313915     0.12400
H2009       H  0.12765942  0.97498576  0.48542174     0.12400
C2010       C  0.18477438  0.95854762  0.46241765     0.62000
F2011       F  0.13717443  0.89209477  0.58847739    -0.23200
F2012       F  0.08934499  0.90036698  0.56394124    -0.20500
F2013       F  0.11121846  0.93746214  0.59310920    -0.20200
F2014       F  0.21594206  0.94722402  0.45565716    -0.20300
F2015       F  0.18671626  0.98996659  0.46423954    -0.20600
F2016       F  0.16405806  0.95112489  0.43844080    -0.23300
C2017       C  0.33435177  0.88924257  0.49167419    -0.06100
C2018       C  0.30681382  0.90816045  0.49923465    -0.00200
C2019       C  0.31244547  0.93927911  0.50624055    -0.08700
C2020       C  0.34494417  0.95038003  0.50411416    -0.06100
C2021       C  0.37184827  0.93168630  0.49526841    -0.00200
C2022       C  0.36672720  0.90051853  0.48942044    -0.08700
C2023       C  0.39550382  0.87943159  0.48111531     0.61700
H2024       H  0.33013108  0.86542818  0.48676023     0.12400
H2025       H  0.34981553  0.97397780  0.50966388     0.12400
C2026       C  0.28468677  0.96096328  0.51568032     0.62000
F2027       F  0.38537055  0.84991365  0.47566751    -0.23200
F2028       F  0.41811607  0.87878679  0.50482794    -0.20500
F2029       F  0.41085513  0.88987620  0.45489943    -0.20200
F2030       F  0.26013167  0.96090142  0.49393340    -0.20300
F2031       F  0.29539180  0.99064595  0.51870072    -0.20600
F2032       F  0.27189723  0.95217946  0.54357828    -0.23300
C2033       C  0.24707166  0.80551821  0.39829884    -0.06100
C2034       C  0.22857216  0.81925760  0.37479728    -0.00200
C2035       C  0.21197229  0.84732688  0.38073742    -0.08700
C2036       C  0.21436434  0.86022663  0.41017901    -0.06100
C2037       C  0.23280145  0.84648958  0.43406959    -0.00200
C2038       C  0.25146750  0.81926891  0.42703558    -0.08700
C2039       C  0.27628259  0.80304588  0.44809793     0.61700
H2040       H  0.25964769  0.78397427  0.39360058     0.12400
H2041       H  0.20303912  0.88230762  0.41382834     0.12400
C2042       C  0.19283494  0.86445019  0.35604479     0.62000
F2043       F  0.26080585  0.77930336  0.46281881    -0.23200
F2044       F  0.29036747  0.82185547  0.46957315    -0.20500
F2045       F  0.30233307  0.79091121  0.43108315    -0.20200
F2046       F  0.16606929  0.84750494  0.34687442    -0.20300
F2047       F  0.21322594  0.86976971  0.33118049    -0.20600
F2048       F  0.18076213  0.89240169  0.36631754    -0.23300
C2049       C  0.30216816  0.56800417  0.25128240    -0.06100
C2050       C  0.33692415  0.56899143  0.25275308    -0.00200
C2051       C  0.35181443  0.59813526  0.25550239    -0.08700
C2052       C  0.33196402  0.62470664  0.25375258    -0.06100
C2053       C  0.29747197  0.62395354  0.25059474    -0.00200
C2054       C  0.28212610  0.59501064  0.25025680    -0.08700
C2055       C  0.24498090  0.59264997  0.24717185     0.61700
H2056       H  0.29087679  0.54587485  0.24948082     0.12400
H2057       H  0.34384782  0.64668109  0.25485107     0.12400
C2058       C  0.38852201  0.60307291  0.26018429     0.62000
F2059       F  0.23528783  0.56275529  0.24343780    -0.23200
F2060       F  0.23434599  0.60901595  0.22191500    -0.20500
F2061       F  0.22979626  0.60423389  0.27325239    -0.20200
F2062       F  0.40165570  0.61619763  0.23415479    -0.20300
F2063       F  0.40582515  0.57657939  0.26660356    -0.20600
F2064       F  0.39301963  0.62265534  0.28470491    -0.23300
C2065       C  0.16230892  0.90146554  0.24312558    -0.06100
C2066       C  0.19660943  0.89878581  0.24693246    -0.00200
C2067       C  0.21469638  0.92561099  0.25319961    -0.08700
C2068       C  0.19729510  0.95376151  0.25729449    -0.06100
C2069       C  0.16265010  0.95601870  0.25499296    -0.00200
C2070       C  0.14486139  0.92932951  0.24655969    -0.08700
C2071       C  0.10785502  0.92962442  0.23967442     0.61700
H2072       H  0.14905606  0.88097130  0.23742198     0.12400
H2073       H  0.21058001  0.97415447  0.26325842     0.12400
C2074       C  0.25194782  0.92440350  0.25664710     0.62000
F2075       F  0.09671946  0.90104907  0.23146567    -0.23200
F2076       F  0.10143871  0.94878594  0.21542439    -0.20500
F2077       F  0.08944687  0.93888558  0.26475909    -0.20200
F2078       F  0.26632044  0.91560636  0.22916299    -0.20300
F2079       F  0.26067412  0.90371484  0.27918190    -0.20600
F2080       F  0.26446927  0.95250708  0.26469158    -0.23300
C2081       C  0.05391057  0.74557747  0.31926549    -0.06100
C2082       C  0.05389788  0.73073531  0.34751892    -0.00200
C2083       C  0.08157257  0.71234037  0.35583944    -0.08700
C2084       C  0.11017389  0.71280884  0.33738406    -0.06100
C2085       C  0.11121881  0.73017892  0.31053497    -0.00200
C2086       C  0.08172057  0.74465944  0.29997693    -0.08700
C2087       C  0.07788569  0.75920324  0.26872715     0.61700
H2088       H  0.03231897  0.75897468  0.31264860     0.12400
H2089       H  0.13248064  0.70093707  0.34466190     0.12400
C2090       C  0.08078556  0.69232078  0.38392731     0.62000
F2091       F  0.05006639  0.74775767  0.25466682    -0.23200
F2092       F  0.10443076  0.75325924  0.24957720    -0.20500
F2093       F  0.07382927  0.79038667  0.27212463    -0.20200
F2094       F  0.05477732  0.67245966  0.38125541    -0.20300
F2095       F  0.07681998  0.71005990  0.40991269    -0.20600
F2096       F  0.10957552  0.67510816  0.38707582    -0.23300
C2097       C  0.01809380  0.67774535  0.43870809    -0.06100
C2098       C  0.99244229  0.68684353  0.41878791    -0.00200
C2099       C  0.97158130  0.66390912  0.40681444    -0.08700
C2100       C  0.97835469  0.63308522  0.41382877    -0.06100
C2101       C  0.00441670  0.62390991  0.43322579    -0.00200
C2102       C  0.02511181  0.64677846  0.44544613    -0.08700
C2103       C  0.05492490  0.63876993  0.46500689     0.61700
H2104       H  0.03386222  0.69516295  0.44793433     0.12400
H2105       H  0.96219389  0.61582247  0.40465407     0.12400
C2106       C  0.94089777  0.67039297  0.38786341     0.62000
F2107       F  0.07116741  0.66446050  0.47506744    -0.23200
F2108       F  0.07711065  0.62143420  0.44785669    -0.20500
F2109       F  0.04521211  0.62257305  0.49052610    -0.20200
F2110       F  0.94678776  0.66204090  0.35773549    -0.20300
F2111       F  0.93120656  0.70055269  0.38892681    -0.20600
F2112       F  0.91473724  0.65367585  0.39897213    -0.23300
C2113       C  0.99754403  0.80688085  0.45779641    -0.06100
C2114       C  0.01027368  0.80455352  0.42762303    -0.00200
C2115       C  0.01886304  0.83248068  0.41241223    -0.08700
C2116       C  0.01231763  0.86042395  0.42730300    -0.06100
C2117       C  0.99779289  0.86249186  0.45634255    -0.00200
C2118       C  0.99142390  0.83521960  0.47250367    -0.08700
C2119       C  0.97843963  0.83577854  0.50519372     0.61700
H2120       H  0.99018681  0.78653163  0.46953370     0.12400
H2121       H  0.01813132  0.88154353  0.41588960     0.12400
C2122       C  0.03542178  0.83431350  0.38081222     0.62000
F2123       F  0.97873618  0.80699093  0.51814834    -0.23200
F2124       F  0.94622687  0.84673738  0.50568223    -0.20500
F2125       F  0.99799879  0.85426329  0.52310111    -0.20200
F2126       F  0.03554230  0.86383115  0.36962251    -0.20300
F2127       F  0.01939439  0.81709603  0.35910236    -0.20600
F2128       F  0.06807290  0.82489700  0.38302185    -0.23300
C2129       C  0.75951022  0.20599215  0.41486929    -0.06100
C2130       C  0.72756882  0.19618891  0.42380388    -0.00200
C2131       C  0.69977790  0.20993777  0.40844951    -0.08700
C2132       C  0.70577786  0.22872266  0.38292476    -0.06100
C2133       C  0.73770629  0.23536146  0.37267256    -0.00200
C2134       C  0.76505000  0.22507526  0.38967359    -0.08700
C2135       C  0.80001153  0.23293496  0.38026066     0.61700
H2136       H  0.78075415  0.19778623  0.42761201     0.12400
H2137       H  0.68525929  0.23697826  0.36916257     0.12400
C2138       C  0.66388483  0.20611375  0.41767065     0.62000
F2139       F  0.82320569  0.22199154  0.40091612    -0.23200
F2140       F  0.80290337  0.26426918  0.37878980    -0.20500
F2141       F  0.80716876  0.22038525  0.35185584    -0.20200
F2142       F  0.66021282  0.21122539  0.44869908    -0.20300
F2143       F  0.65343356  0.17738119  0.40945298    -0.20600
F2144       F  0.64314301  0.22694857  0.40316777    -0.23300
C2145       C  0.81472029  0.12150534  0.49099009    -0.06100
C2146       C  0.78800266  0.11002373  0.47459206    -0.00200
C2147       C  0.79178468  0.08181343  0.45882650    -0.08700
C2148       C  0.82246717  0.06589061  0.46054425    -0.06100
C2149       C  0.84886464  0.07691163  0.47811681    -0.00200
C2150       C  0.84482842  0.10537623  0.49358022    -0.08700
C2151       C  0.87250779  0.11943596  0.51206117     0.61700
H2152       H  0.81196844  0.14378846  0.50145452     0.12400
H2153       H  0.82545197  0.04417955  0.44883068     0.12400
C2154       C  0.76448084  0.06748078  0.44012362     0.62000
F2155       F  0.86553021  0.14942517  0.52013003    -0.23200
F2156       F  0.90115621  0.11903352  0.49484765    -0.20500
F2157       F  0.87749041  0.10325696  0.53880023    -0.20200
F2158       F  0.77388569  0.06664194  0.40964936    -0.20300
F2159       F  0.73456370  0.08300790  0.44233225    -0.20600
F2160       F  0.75958454  0.03799781  0.45010834    -0.23300
C2161       C  0.67732713  0.09128219  0.50510294    -0.06100
C2162       C  0.67515602  0.12320070  0.50578757    -0.00200
C2163       C  0.64865574  0.13735508  0.52220483    -0.08700
C2164       C  0.62276586  0.11916541  0.53352467    -0.06100
C2165       C  0.62367544  0.08729279  0.53045945    -0.00200
C2166       C  0.65238362  0.07309898  0.51774755    -0.08700
C2167       C  0.65626419  0.03876207  0.51488875     0.61700
H2168       H  0.69835440  0.08038426  0.49387607     0.12400
H2169       H  0.60074612  0.12985761  0.54317311     0.12400
C2170       C  0.64820991  0.17134241  0.52841056     0.62000
F2171       F  0.68798836  0.02990712  0.52310398    -0.23200
F2172       F  0.65085592  0.03025356  0.48482168    -0.20500
F2173       F  0.63453126  0.02344830  0.53368746    -0.20200
F2174       F  0.64562965  0.18719564  0.50130064    -0.20300
F2175       F  0.67709693  0.17914117  0.54309589    -0.20600
F2176       F  0.62193018  0.18015579  0.54697168    -0.23300
C2177       C  0.20169993  0.55960000  0.74811599    -0.06100
C2178       C  0.16657623  0.55862911  0.74777332    -0.00200
C2179       C  0.14887993  0.58739853  0.74597909    -0.08700
C2180       C  0.16712146  0.61443124  0.74454719    -0.06100
C2181       C  0.20165469  0.61503421  0.74594254    -0.00200
C2182       C  0.21943417  0.58717379  0.74775521    -0.08700
C2183       C  0.25686350  0.58656410  0.75040998     0.61700
H2184       H  0.21602016  0.53886394  0.74884321     0.12400
H2185       H  0.15425894  0.63616165  0.74297339     0.12400
C2186       C  0.11101328  0.59140960  0.74706818     0.62000
F2187       F  0.26944151  0.55721860  0.75378545    -0.23200
F2188       F  0.26624709  0.60342569  0.77568892    -0.20500
F2189       F  0.27077207  0.59879311  0.72433081    -0.20200
F2190       F  0.09905639  0.58343358  0.77547498    -0.20300
F2191       F  0.09550219  0.57468673  0.72475562    -0.20600
F2192       F  0.10110635  0.62139814  0.74235293    -0.23300
C2193       C  0.20143039  0.43801308  0.73976494    -0.06100
C2194       C  0.16860257  0.43944688  0.75150212    -0.00200
C2195       C  0.15576515  0.41182889  0.76419726    -0.08700
C2196       C  0.17783596  0.38716023  0.76937286    -0.06100
C2197       C  0.21035467  0.38660285  0.75834713    -0.00200
C2198       C  0.22218948  0.41205115  0.74260941    -0.08700
C2199       C  0.25632988  0.41120783  0.72820408     0.61700
H2200       H  0.21071070  0.45712522  0.72699740     0.12400
H2201       H  0.16908412  0.36648160  0.77992691     0.12400
C2202       C  0.11918586  0.40542325  0.76885296     0.62000
F2203       F  0.26391891  0.43857355  0.71436954    -0.23200
F2204       F  0.25804367  0.38844713  0.70619415    -0.20500
F2205       F  0.27969670  0.40529187  0.75056411    -0.20200
F2206       F  0.10313648  0.40728986  0.74097491    -0.20300
F2207       F  0.10514088  0.42527975  0.78964137    -0.20600
F2208       F  0.11378117  0.37638206  0.78002528    -0.23300
C2209       C  0.11103687  0.48416907  0.66535894    -0.06100
C2210       C  0.09079279  0.48798800  0.69138282    -0.00200
C2211       C  0.05590776  0.48981029  0.68706041    -0.08700
C2212       C  0.04323025  0.49071196  0.65692138    -0.06100
C2213       C  0.06376197  0.48864255  0.63096857    -0.00200
C2214       C  0.09834118  0.48509801  0.63530683    -0.08700
C2215       C  0.12214999  0.48613853  0.60850733     0.61700
H2216       H  0.13753231  0.48291607  0.66882517     0.12400
H2217       H  0.01678081  0.49334844  0.65356063     0.12400
C2218       C  0.03089084  0.49225875  0.71284774     0.62000
F2219       F  0.15482063  0.48402434  0.61775802    -0.23200
F2220       F  0.11763607  0.51362812  0.59356308    -0.20500
F2221       F  0.11654034  0.46229225  0.58852367    -0.20200
F2222       F  0.01924307  0.52201171  0.71496149    -0.20300
F2223       F  0.04385851  0.48335869  0.74056796    -0.20600
F2224       F  0.00447979  0.47348682  0.70684519    -0.23300
C2225       C  0.10379188  0.47440701  0.82759412    -0.06100
C2226       C  0.08776891  0.49240099  0.80531887    -0.00200
C2227       C  0.05731525  0.50706895  0.81306768    -0.08700
C2228       C  0.04298613  0.50117972  0.84178901    -0.06100
C2229       C  0.05856430  0.48256648  0.86372734    -0.00200
C2230       C  0.08959689  0.46893679  0.85662381    -0.08700
C2231       C  0.10836002  0.45009917  0.88010106     0.61700
H2232       H  0.12830968  0.46549404  0.82237872     0.12400
H2233       H  0.01991302  0.51267846  0.84785270     0.12400
C2234       C  0.03962011  0.53059503  0.79329994     0.62000
F2235       F  0.13875427  0.44002747  0.86900714    -0.23200
F2236       F  0.09016282  0.42483715  0.88781725    -0.20500
F2237       F  0.11376962  0.46741446  0.90610712    -0.20200
F2238       F  0.00784042  0.52100466  0.78742674    -0.20300
F2239       F  0.05512047  0.53581005  0.76568810    -0.20600
F2240       F  0.03781205  0.55801810  0.80901640    -0.23300
C2241       C  0.22592871  0.65744341  0.91168294    -0.06100
C2242       C  0.24249753  0.67357301  0.93492944    -0.00200
C2243       C  0.25660150  0.70235870  0.92742776    -0.08700
C2244       C  0.25299407  0.71314915  0.89739242    -0.06100
C2245       C  0.23861528  0.69580644  0.87411315    -0.00200
C2246       C  0.22525579  0.66712264  0.88111686    -0.08700
C2247       C  0.21235008  0.64575941  0.85646427     0.61700
H2248       H  0.21357578  0.63657197  0.91731690     0.12400
H2249       H  0.26210518  0.73550325  0.89160289     0.12400
C2250       C  0.27554206  0.72260929  0.94954107     0.62000
F2251       F  0.20585299  0.61709482  0.86796708    -0.23200
F2252       F  0.23574710  0.64223459  0.83345664    -0.20500
F2253       F  0.18333651  0.65729148  0.84417281    -0.20200
F2254       F  0.29679302  0.70573155  0.96765705    -0.20300
F2255       F  0.25346069  0.73912054  0.96755425    -0.20600
F2256       F  0.29489006  0.74337888  0.93409434    -0.23300
C2257       C  0.19104633  0.56484451  0.99169704    -0.06100
C2258       C  0.18901236  0.59558134  0.98303665    -0.00200
C2259       C  0.15844609  0.60740887  0.97183340    -0.08700
C2260       C  0.13102422  0.58819841  0.97056026    -0.06100
C2261       C  0.13222039  0.55813951  0.98144730    -0.00200
C2262       C  0.16319989  0.54578809  0.99117803    -0.08700
C2263       C  0.16730605  0.51269649  0.00064456     0.61700
H2264       H  0.21450204  0.55619855  0.00022505     0.12400
H2265       H  0.10764830  0.59756059  0.96248806     0.12400
C2266       C  0.15247783  0.63986596  0.96110063     0.62000
F2267       F  0.20030875  0.50432537  0.00354884    -0.23200
F2268       F  0.15347155  0.49396977  0.97875067    -0.20500
F2269       F  0.15212586  0.50809590  0.02861398    -0.20200
F2270       F  0.17816797  0.65897043  0.96703959    -0.20300
F2271       F  0.12470369  0.65200420  0.97555361    -0.20600
F2272       F  0.14732811  0.63949687  0.92981986    -0.23300
C2273       C  0.30582280  0.56491581  0.97806124    -0.06100
C2274       C  0.30651661  0.59646942  0.97324822    -0.00200
C2275       C  0.33489096  0.60945994  0.95957539    -0.08700
C2276       C  0.36220025  0.59050324  0.95243859    -0.06100
C2277       C  0.36250986  0.55948536  0.95964560    -0.00200
C2278       C  0.33333777  0.54605067  0.97111467    -0.08700
C2279       C  0.33090851  0.51219760  0.97733169     0.61700
H2280       H  0.28402374  0.55509609  0.98836108     0.12400
H2281       H  0.38484794  0.60035614  0.94397894     0.12400
C2282       C  0.33724406  0.64339082  0.95405226     0.62000
F2283       F  0.30039398  0.50188067  0.96792711    -0.23200
F2284       F  0.33425137  0.50694731  0.00839540    -0.20500
F2285       F  0.35492695  0.49556317  0.96163962    -0.20200
F2286       F  0.33508888  0.65879905  0.98166313    -0.20300
F2287       F  0.31196196  0.65268219  0.93495752    -0.20600
F2288       F  0.36682399  0.65107495  0.94025624    -0.23300
C2289       C  0.27140180  0.65502801  0.07538992    -0.06100
C2290       C  0.25026967  0.66661769  0.05229647    -0.00200
C2291       C  0.22977263  0.69244522  0.05998012    -0.08700
C2292       C  0.23551432  0.70788961  0.08757950    -0.06100
C2293       C  0.25649919  0.69626486  0.11044467    -0.00200
C2294       C  0.27498757  0.66917471  0.10419236    -0.08700
C2295       C  0.29787542  0.65449244  0.12767377     0.61700
H2296       H  0.28418385  0.63364088  0.07163945     0.12400
H2297       H  0.22126918  0.72857232  0.09220840     0.12400
C2298       C  0.20009658  0.70449066  0.04195685     0.62000
F2299       F  0.31182395  0.62734553  0.11715461    -0.23200
F2300       F  0.28043450  0.64816806  0.15414353    -0.20500
F2301       F  0.32345340  0.67396661  0.13424302    -0.20200
F2302       F  0.18910398  0.68483189  0.01980816    -0.20300
F2303       F  0.20789338  0.73197845  0.02850935    -0.20600
F2304       F  0.17372451  0.70941311  0.06178548    -0.23300
C2305       C  0.72425334  0.28719473  0.04395792    -0.06100
C2306       C  0.74990475  0.30757315  0.03723461    -0.00200
C2307       C  0.77798649  0.30805336  0.05655332    -0.08700
C2308       C  0.77724223  0.29131066  0.08384417    -0.06100
C2309       C  0.75005340  0.27362500  0.09225208    -0.00200
C2310       C  0.72388280  0.26999221  0.07126165    -0.08700
C2311       C  0.69543307  0.24898760  0.07806287     0.61700
H2312       H  0.70372050  0.28582397  0.02820269     0.12400
H2313       H  0.79780916  0.29259805  0.09962162     0.12400
C2314       C  0.80947622  0.32438981  0.04801466     0.62000
F2315       F  0.67224645  0.24923077  0.05478622    -0.23200
F2316       F  0.67977723  0.25797632  0.10489458    -0.20500
F2317       F  0.70738806  0.21943716  0.08118773    -0.20200
F2318       F  0.80384079  0.35531629  0.04573932    -0.20300
F2319       F  0.82109266  0.31301602  0.02045875    -0.20600
F2320       F  0.83415043  0.32005989  0.06955700    -0.23300
C2321       C  0.79448720  0.41887671  0.01011830    -0.06100
C2322       C  0.79718951  0.39269335  0.99134383    -0.00200
C2323       C  0.82822086  0.38586317  0.97703762    -0.08700
C2324       C  0.85333078  0.40746623  0.97854589    -0.06100
C2325       C  0.85029609  0.43377577  0.99648492    -0.00200
C2326       C  0.82114334  0.43909171  0.01371615    -0.08700
C2327       C  0.81854612  0.46593808  0.03558566     0.61700
H2328       H  0.77124111  0.42360506  0.02169073     0.12400
H2329       H  0.87645856  0.40304397  0.96651692     0.12400
C2330       C  0.83749963  0.35603409  0.96103110     0.62000
F2331       F  0.78835807  0.46702910  0.05060914    -0.23200
F2332       F  0.82225338  0.49285453  0.01961574    -0.20500
F2333       F  0.84317271  0.46355600  0.05742166    -0.20200
F2334       F  0.84039722  0.36109963  0.92990185    -0.20300
F2335       F  0.81523302  0.33306654  0.96575619    -0.20600
F2336       F  0.86771492  0.34558506  0.97196982    -0.23300
C2337       C  0.68609724  0.42378503  0.00954868    -0.06100
C2338       C  0.68474597  0.39268582  0.01668210    -0.00200
C2339       C  0.65686829  0.38144965  0.03240605    -0.08700
C2340       C  0.62885943  0.40062745  0.03607122    -0.06100
C2341       C  0.62856671  0.43048055  0.02472321    -0.00200
C2342       C  0.65836617  0.44316345  0.01385156    -0.08700
C2343       C  0.66052175  0.47687421  0.00645859     0.61700
H2344       H  0.70802233  0.43223581  0.99829502     0.12400
H2345       H  0.60616787  0.39162274  0.04536422     0.12400
C2346       C  0.65645721  0.34897146  0.04400274     0.62000
F2347       F  0.69286230  0.48544444  0.00136354    -0.23200
F2348       F  0.64817148  0.49388028  0.03081348    -0.20500
F2349       F  0.64240819  0.48369331  0.98054538    -0.20200
F2350       F  0.68350048  0.34393677  0.06273219    -0.20300
F2351       F  0.65778118  0.32884322  0.01961487    -0.20600
F2352       F  0.62818258  0.34322123  0.06082229    -0.23300
C2353       C  0.29536735  0.93960275  0.75504658    -0.06100
C2354       C  0.33030882  0.93885091  0.75159289    -0.00200
C2355       C  0.34610240  0.90946583  0.74831652    -0.08700
C2356       C  0.32619406  0.88350222  0.74697052    -0.06100
C2357       C  0.29152167  0.88494642  0.74832109    -0.00200
C2358       C  0.27569213  0.91356294  0.75224033    -0.08700
C2359       C  0.23823639  0.91700993  0.75255387     0.61700
H2360       H  0.28274726  0.96047031  0.76113567     0.12400
H2361       H  0.33787644  0.86128878  0.74418608     0.12400
C2362       C  0.38339893  0.90399497  0.74459675     0.62000
F2363       F  0.22809316  0.94732591  0.75275663    -0.23200
F2364       F  0.22542355  0.90335760  0.77839592    -0.20500
F2365       F  0.22525706  0.90352741  0.72662783    -0.20200
F2366       F  0.39224908  0.87389393  0.75030863    -0.20300
F2367       F  0.40141699  0.92139609  0.76463703    -0.20600
F2368       F  0.39282706  0.91021126  0.71486495    -0.23300
C2369       C  0.34393762  0.07779395  0.73963332    -0.06100
C2370       C  0.32937565  0.05536603  0.75780766    -0.00200
C2371       C  0.29767737  0.06182086  0.77119864    -0.08700
C2372       C  0.28145313  0.08968314  0.76438728    -0.06100
C2373       C  0.29637681  0.11229132  0.74679310    -0.00200
C2374       C  0.32820723  0.10613583  0.73398248    -0.08700
C2375       C  0.34678680  0.12829262  0.71392036     0.61700
H2376       H  0.36779673  0.07296971  0.72914781     0.12400
H2377       H  0.25774016  0.09485026  0.77505163     0.12400
C2378       C  0.28020458  0.04169764  0.79437523     0.62000
F2379       F  0.35495492  0.11414873  0.68645987    -0.23200
F2380       F  0.37561589  0.13650655  0.72854004    -0.20500
F2381       F  0.32870608  0.15440822  0.70725030    -0.20200
F2382       F  0.29898574  0.01721266  0.80445079    -0.20300
F2383       F  0.25143929  0.03087447  0.78155242    -0.20600
F2384       F  0.27198949  0.05896747  0.81998191    -0.23300
C2385       C  0.41117254  0.01805879  0.87375824    -0.06100
C2386       C  0.42782142  0.99135194  0.88401847    -0.00200
C2387       C  0.43440044  0.96817755  0.86173598    -0.08700
C2388       C  0.42254386  0.97200717  0.83132835    -0.06100
C2389       C  0.40439828  0.99802977  0.82160128    -0.00200
C2390       C  0.39979099  0.02207472  0.84324501    -0.08700
C2391       C  0.38235995  0.05178694  0.83492862     0.61700
H2392       H  0.40658421  0.03612182  0.89020571     0.12400
H2393       H  0.42655110  0.95390558  0.81474280     0.12400
C2394       C  0.45397493  0.93943791  0.86952175     0.62000
F2395       F  0.37973646  0.07156649  0.85964986    -0.23200
F2396       F  0.35085272  0.04602821  0.82487003    -0.20500
F2397       F  0.39984079  0.06648387  0.81232124    -0.20200
F2398       F  0.48460373  0.94715740  0.88092642    -0.20300
F2399       F  0.45917813  0.92093389  0.84413791    -0.20600
F2400       F  0.43691799  0.92269569  0.89100381    -0.23300
C2401       C  0.46647359  0.00317856  0.67748890    -0.06100
C2402       C  0.45081643  0.01537043  0.65138754    -0.00200
C2403       C  0.41830252  0.02777996  0.65473851    -0.08700
C2404       C  0.40146447  0.02479919  0.68311279    -0.06100
C2405       C  0.41621985  0.01040571  0.70851094    -0.00200
C2406       C  0.44968193  0.00063287  0.70600848    -0.08700
C2407       C  0.46700442  0.98670532  0.73341131     0.61700
H2408       H  0.49140545  0.99413842  0.67498021     0.12400
H2409       H  0.37588909  0.03224304  0.68516750     0.12400
C2410       C  0.40143190  0.04398488  0.62822399     0.62000
F2411       F  0.50006720  0.98057356  0.72743302    -0.23200
F2412       F  0.45204159  0.95973488  0.74134666    -0.20500
F2413       F  0.46496753  0.00675561  0.75791486    -0.20200
F2414       F  0.39557291  0.02357424  0.60476259    -0.20300
F2415       F  0.42151242  0.06687997  0.61749036    -0.20600
F2416       F  0.37146985  0.05712354  0.63689729    -0.23300
C2417       C  0.41089636  0.78633847  0.13413883    -0.06100
C2418       C  0.43493202  0.76983845  0.15082474    -0.00200
C2419       C  0.43046111  0.76528714  0.18252236    -0.08700
C2420       C  0.40077326  0.77509710  0.19617667    -0.06100
C2421       C  0.37518106  0.78802544  0.17873702    -0.00200
C2422       C  0.38071313  0.79553337  0.14774598    -0.08700
C2423       C  0.35388034  0.81101475  0.12887982     0.61700
H2424       H  0.41493152  0.78983344  0.10985689     0.12400
H2425       H  0.39575938  0.76951863  0.21990160     0.12400
C2426       C  0.45515196  0.74689791  0.20092580     0.62000
F2427       F  0.36483223  0.81789435  0.09967290    -0.23200
F2428       F  0.34403927  0.83795679  0.14302303    -0.20500
F2429       F  0.32692115  0.79215494  0.12635129    -0.20200
F2430       F  0.48616062  0.75940347  0.19804303    -0.20300
F2431       F  0.45562536  0.71729856  0.19002210    -0.20600
F2432       F  0.44706751  0.74623679  0.23176055    -0.23300
C2433       C  0.48141439  0.68883187  0.04296809    -0.06100
C2434       C  0.47162052  0.68993569  0.07412832    -0.00200
C2435       C  0.46324884  0.66173553  0.08880268    -0.08700
C2436       C  0.46733341  0.63447641  0.07218579    -0.06100
C2437       C  0.47923279  0.63386893  0.04212863    -0.00200
C2438       C  0.48509580  0.66136716  0.02668585    -0.08700
C2439       C  0.49569458  0.66180839  0.99326903     0.61700
H2440       H  0.48909206  0.70914926  0.03147482     0.12400
H2441       H  0.46215129  0.61283520  0.08291879     0.12400
C2442       C  0.45030859  0.65907866  0.12170577     0.62000
F2443       F  0.49500959  0.69104257  0.98137921    -0.23200
F2444       F  0.47456865  0.64425573  0.97596836    -0.20500
F2445       F  0.52759990  0.65037612  0.99046094    -0.20200
F2446       F  0.41907989  0.67202800  0.12397815    -0.20300
F2447       F  0.47124104  0.67280901  0.14224652    -0.20600
F2448       F  0.44746501  0.62900879  0.13085652    -0.23300
C2449       C  0.50354392  0.80653575  0.04540913    -0.06100
C2450       C  0.49783343  0.80541751  0.07762375    -0.00200
C2451       C  0.49392556  0.83414565  0.09321004    -0.08700
C2452       C  0.49082445  0.86084685  0.07561964    -0.06100
C2453       C  0.49568405  0.86142665  0.04386763    -0.00200
C2454       C  0.50239766  0.83388610  0.02834651    -0.08700
C2455       C  0.50874528  0.83352739  0.99410112     0.61700
H2456       H  0.50982749  0.78574523  0.03328177     0.12400
H2457       H  0.48592004  0.88248238  0.08688373     0.12400
C2458       C  0.49576190  0.83865736  0.12775639     0.62000
F2459       F  0.51563166  0.80441144  0.98324484    -0.23200
F2460       F  0.53538635  0.85167925  0.98730844    -0.20500
F2461       F  0.48108715  0.84458923  0.97897829    -0.20200
F2462       F  0.52595234  0.82778522  0.13822691    -0.20300
F2463       F  0.46981792  0.82459395  0.14212491    -0.20600
F2464       F  0.49388459  0.86909237  0.13628789    -0.23300
C2465       C  0.66403316  0.95346871  0.00380191    -0.06100
C2466       C  0.63680037  0.93689760  0.01406357    -0.00200
C2467       C  0.64009753  0.90511290  0.01942349    -0.08700
C2468       C  0.67034836  0.89075699  0.01231540    -0.06100
C2469       C  0.69658053  0.90703234  0.99980539    -0.00200
C2470       C  0.69402357  0.93893804  0.99623117    -0.08700
C2471       C  0.72154626  0.95710965  0.98195582     0.61700
H2472       H  0.66094919  0.97775897  0.00006946     0.12400
H2473       H  0.67344692  0.86635325  0.01526078     0.12400
C2474       C  0.61153363  0.88605017  0.03076503     0.62000
F2475       F  0.71457016  0.98811504  0.98215242    -0.23200
F2476       F  0.72551481  0.94798827  0.95188578    -0.20500
F2477       F  0.75068491  0.95236933  0.99779496    -0.20200
F2478       F  0.58476617  0.88963585  0.01140809    -0.20300
F2479       F  0.60267619  0.89509525  0.06007953    -0.20600
F2480       F  0.61971467  0.85528672  0.03171319    -0.23300
C2481       C  0.82737053  0.91068739  0.01803610    -0.06100
C2482       C  0.81192608  0.90960980  0.98929645    -0.00200
C2483       C  0.82369146  0.92796051  0.96499559    -0.08700
C2484       C  0.85261959  0.94411050  0.96958173    -0.06100
C2485       C  0.86863377  0.94460466  0.99782840    -0.00200
C2486       C  0.85536463  0.92856018  0.02303567    -0.08700
C2487       C  0.87079954  0.92970451  0.05473083     0.61700
H2488       H  0.81774477  0.89683686  0.03641295     0.12400
H2489       H  0.86244554  0.95728368  0.95092770     0.12400
C2490       C  0.80700860  0.93247507  0.93412401     0.62000
F2491       F  0.85528767  0.91037130  0.07504214    -0.23200
F2492       F  0.86805109  0.95896958  0.06638246    -0.20500
F2493       F  0.90381175  0.92122660  0.05325630    -0.20200
F2494       F  0.77608278  0.92013509  0.93234011    -0.20300
F2495       F  0.82664355  0.91961331  0.91136068    -0.20600
F2496       F  0.80324000  0.96337728  0.92855986    -0.23300
C2497       C  0.77719774  0.80881904  0.08978067    -0.06100
C2498       C  0.75346346  0.82144259  0.11010789    -0.00200
C2499       C  0.73239800  0.84540159  0.09982851    -0.08700
C2500       C  0.73397460  0.85374978  0.06879895    -0.06100
C2501       C  0.75707116  0.84032989  0.04855586    -0.00200
C2502       C  0.78046100  0.81884464  0.05960597    -0.08700
C2503       C  0.80976910  0.80727630  0.04067791     0.61700
H2504       H  0.79366418  0.79077023  0.09759166     0.12400
H2505       H  0.71710957  0.87102752  0.06008576     0.12400
C2506       C  0.70965151  0.86313799  0.12140774     0.62000
F2507       F  0.83499995  0.79650875  0.05933450    -0.23200
F2508       F  0.82260843  0.83048338  0.02310713    -0.20500
F2509       F  0.80018994  0.78365904  0.02185106    -0.20200
F2510       F  0.72742247  0.87318958  0.14642450    -0.20300
F2511       F  0.68431330  0.84489354  0.13123394    -0.20600
F2512       F  0.69557948  0.88843276  0.10735244    -0.23300
C2513       C  0.67374724  0.89504319  0.24316256    -0.06100
C2514       C  0.70838054  0.89440775  0.24655938    -0.00200
C2515       C  0.72425979  0.92235011  0.25314160    -0.08700
C2516       C  0.70468289  0.94947693  0.25668765    -0.06100
C2517       C  0.66994469  0.94949291  0.25384871    -0.00200
C2518       C  0.65433414  0.92174533  0.24627124    -0.08700
C2519       C  0.61717363  0.91990478  0.24107967     0.61700
H2520       H  0.66145372  0.87385782  0.23865955     0.12400
H2521       H  0.71630483  0.97076027  0.26258070     0.12400
C2522       C  0.76149567  0.92361707  0.25617198     0.62000
F2523       F  0.60813298  0.89166504  0.22990870    -0.23200
F2524       F  0.60731791  0.94134928  0.21986380    -0.20500
F2525       F  0.60014496  0.92490097  0.26813833    -0.20200
F2526       F  0.77637153  0.91084040  0.23047610    -0.20300
F2527       F  0.77143784  0.90767051  0.28190196    -0.20600
F2528       F  0.77227194  0.95328834  0.25901462    -0.23300
C2529       C  0.87866695  0.76963525  0.34761784    -0.06100
C2530       C  0.88062636  0.76850759  0.31569643    -0.00200
C2531       C  0.91139550  0.76137215  0.30151841    -0.08700
C2532       C  0.93944069  0.75557226  0.32006295    -0.06100
C2533       C  0.93745164  0.75650023  0.35220363    -0.00200
C2534       C  0.90621925  0.76341723  0.36627517    -0.08700
C2535       C  0.89966681  0.76432337  0.40068156     0.61700
H2536       H  0.85478260  0.77418521  0.35821798     0.12400
H2537       H  0.96333415  0.75103596  0.30958235     0.12400
C2538       C  0.91447651  0.76080390  0.26685948     0.62000
F2539       F  0.89200150  0.79397738  0.40931323    -0.23200
F2540       F  0.92573418  0.75400999  0.41828390    -0.20500
F2541       F  0.87300641  0.74612115  0.40743659    -0.20200
F2542       F  0.90374272  0.78850822  0.25515844    -0.20300
F2543       F  0.89537306  0.73787973  0.25480334    -0.20600
F2544       F  0.94680617  0.75575329  0.25742119    -0.23300
C2545       C  0.82883732  0.61789555  0.22450076    -0.06100
C2546       C  0.79423050  0.61915237  0.22400244    -0.00200
C2547       C  0.77681381  0.59131797  0.22287006    -0.08700
C2548       C  0.79483964  0.56335331  0.22552305    -0.06100
C2549       C  0.82945375  0.56249717  0.22892399    -0.00200
C2550       C  0.84685007  0.59050889  0.22676663    -0.08700
C2551       C  0.88414356  0.59408307  0.22819330     0.61700
H2552       H  0.84232932  0.63908520  0.22418644     0.12400
H2553       H  0.78182056  0.54201686  0.22683010     0.12400
C2554       C  0.73950502  0.59113065  0.22003393     0.62000
F2555       F  0.89438978  0.61258523  0.20446121    -0.23200
F2556       F  0.90148115  0.56715728  0.22547316    -0.20500
F2557       F  0.89242032  0.60770166  0.25570397    -0.20200
F2558       F  0.73038060  0.60395882  0.19234384    -0.20300
F2559       F  0.72518269  0.60767223  0.24378186    -0.20600
F2560       F  0.72731644  0.56184959  0.22101296    -0.23300
C2561       C  0.59868792  0.71929811  0.17446314    -0.06100
C2562       C  0.61967197  0.74208486  0.16376543    -0.00200
C2563       C  0.60776805  0.76251928  0.14086255    -0.08700
C2564       C  0.57472055  0.76046986  0.13115729    -0.06100
C2565       C  0.55359165  0.73808119  0.14231257    -0.00200
C2566       C  0.56602125  0.71647534  0.16387651    -0.08700
C2567       C  0.54523916  0.69085186  0.17649156     0.61700
H2568       H  0.60810055  0.70374275  0.19168416     0.12400
H2569       H  0.56516865  0.77622728  0.11416153     0.12400
C2570       C  0.62957265  0.78615763  0.12604884     0.62000
F2571       F  0.53852138  0.66998172  0.15372870    -0.23200
F2572       F  0.51612808  0.70261713  0.18819584    -0.20500
F2573       F  0.56111196  0.67525064  0.19989837    -0.20200
F2574       F  0.61538145  0.79822233  0.09980316    -0.20300
F2575       F  0.65972956  0.77315654  0.11784560    -0.20600
F2576       F  0.63432463  0.80983212  0.14633730    -0.23300
C2577       C  0.68156241  0.57428352  0.48553183    -0.06100
C2578       C  0.68255520  0.60586390  0.48992157    -0.00200
C2579       C  0.65251598  0.62304146  0.49122694    -0.08700
C2580       C  0.62256216  0.60811197  0.48585477    -0.06100
C2581       C  0.62164488  0.57656938  0.48078476    -0.00200
C2582       C  0.65149528  0.55919139  0.48141835    -0.08700
C2583       C  0.65148063  0.52471382  0.47864562     0.61700
H2584       H  0.70469213  0.56153321  0.48496526     0.12400
H2585       H  0.59946058  0.62097113  0.48718612     0.12400
C2586       C  0.65054452  0.65668698  0.49941367     0.62000
F2587       F  0.68322367  0.51247713  0.47724185    -0.23200
F2588       F  0.63497529  0.51622358  0.45235377    -0.20500
F2589       F  0.63588039  0.51248630  0.50385286    -0.20200
F2590       F  0.64056082  0.67320026  0.47405498    -0.20300
F2591       F  0.68026212  0.66785889  0.50963693    -0.20600
F2592       F  0.62759176  0.66117133  0.52265916    -0.23300
C2593       C  0.80907133  0.57195612  0.52213893    -0.06100
C2594       C  0.79186209  0.57255311  0.49421082    -0.00200
C2595       C  0.79848218  0.54933775  0.47224050    -0.08700
C2596       C  0.82542415  0.52924697  0.47697994    -0.06100
C2597       C  0.84507897  0.53075334  0.50339185    -0.00200
C2598       C  0.83603410  0.55163929  0.52694923    -0.08700
C2599       C  0.85657511  0.55415105  0.55583644     0.61700
H2600       H  0.80322549  0.58933689  0.53906445     0.12400
H2601       H  0.83244034  0.51333284  0.45892840     0.12400
C2602       C  0.77878694  0.54553682  0.44294885     0.62000
F2603       F  0.84328440  0.57532735  0.57621395    -0.23200
F2604       F  0.88827613  0.56299549  0.54844271    -0.20500
F2605       F  0.85801484  0.52617705  0.57032321    -0.20200
F2606       F  0.79784988  0.55422017  0.41821746    -0.20300
F2607       F  0.74963435  0.56241175  0.44292138    -0.20600
F2608       F  0.77057940  0.51523292  0.43942162    -0.23300
C2609       C  0.74966822  0.70808539  0.39395520    -0.06100
C2610       C  0.75835447  0.69071101  0.36822769    -0.00200
C2611       C  0.76796703  0.65983981  0.37190215    -0.08700
C2612       C  0.76940471  0.64787225  0.40171431    -0.06100
C2613       C  0.76123311  0.66521823  0.42827342    -0.00200
C2614       C  0.74898643  0.69580545  0.42365705    -0.08700
C2615       C  0.73434100  0.71651301  0.44854581     0.61700
H2616       H  0.74255106  0.73173963  0.39041561     0.12400
H2617       H  0.77491822  0.62387737  0.40384375     0.12400
C2618       C  0.77466232  0.63894633  0.34450218     0.62000
F2619       F  0.71414202  0.73908115  0.43613063    -0.23200
F2620       F  0.75946985  0.73079917  0.46409982    -0.20500
F2621       F  0.71478747  0.70069586  0.46868171    -0.20200
F2622       F  0.80306316  0.64768149  0.32946351    -0.20300
F2623       F  0.74822727  0.64035565  0.32446829    -0.20600
F2624       F  0.77906936  0.60879467  0.35309679    -0.23300
C2625       C  0.56099888  0.50298317  0.80160253    -0.06100
C2626       C  0.59547184  0.50583923  0.80353693    -0.00200
C2627       C  0.61025401  0.50789495  0.83321145    -0.08700
C2628       C  0.58969206  0.50759885  0.85920951    -0.06100
C2629       C  0.55530610  0.50434548  0.85739988    -0.00200
C2630       C  0.54053652  0.50239525  0.82798062    -0.08700
C2631       C  0.50349415  0.49946761  0.82425174     0.61700
H2632       H  0.55005564  0.50200895  0.77901212     0.12400
H2633       H  0.60093584  0.50950742  0.88166506     0.12400
C2634       C  0.64720764  0.51012515  0.83986876     0.62000
F2635       F  0.49468670  0.49568443  0.79385762    -0.23200
F2636       F  0.48773536  0.52557854  0.83507400    -0.20500
F2637       F  0.49261201  0.47446778  0.84041228    -0.20200
F2638       F  0.65386394  0.53924682  0.85013287    -0.20300
F2639       F  0.66740971  0.50359879  0.81514172    -0.20600
F2640       F  0.65582759  0.48966156  0.86272019    -0.23300
C2641       C  0.54397856  0.52482758  0.65461288    -0.06100
C2642       C  0.54249709  0.49654913  0.63941319    -0.00200
C2643       C  0.55870039  0.47102646  0.65301133    -0.08700
C2644       C  0.57807074  0.47537737  0.67980869    -0.06100
C2645       C  0.58126471  0.50425199  0.69375714    -0.00200
C2646       C  0.56166588  0.52879443  0.68216535    -0.08700
C2647       C  0.55857814  0.55954273  0.69802430     0.61700
H2648       H  0.53120375  0.54430332  0.64462336     0.12400
H2649       H  0.59234737  0.45648338  0.68908824     0.12400
C2650       C  0.55701944  0.43974421  0.63826929     0.62000
F2651       F  0.57849656  0.58023662  0.68330349    -0.23200
F2652       F  0.56720352  0.55801550  0.72862908    -0.20500
F2653       F  0.52613477  0.57003231  0.69673411    -0.20200
F2654       F  0.56997853  0.44072891  0.60892401    -0.20300
F2655       F  0.52446086  0.43071079  0.63688985    -0.20600
F2656       F  0.57463141  0.41801127  0.65470441    -0.23300
C2657       C  0.66673737  0.39014092  0.75837018    -0.06100
C2658       C  0.68768859  0.38232323  0.73359350    -0.00200
C2659       C  0.69329617  0.40465852  0.71065104    -0.08700
C2660       C  0.67816256  0.43374592  0.71397539    -0.06100
C2661       C  0.65838052  0.44172535  0.73947132    -0.00200
C2662       C  0.65233564  0.41930264  0.76207977    -0.08700
C2663       C  0.63275387  0.42598333  0.79115864     0.61700
H2664       H  0.66230748  0.37319769  0.77576957     0.12400
H2665       H  0.68252421  0.45112560  0.69692660     0.12400
C2666       C  0.71506282  0.39841444  0.68282892     0.62000
F2667       F  0.63314656  0.40157639  0.81121818    -0.23200
F2668       F  0.60014176  0.43247226  0.78436354    -0.20500
F2669       F  0.64641207  0.45025060  0.80621856    -0.20200
F2670       F  0.70441513  0.37267829  0.66762884    -0.20300
F2671       F  0.74751728  0.39424876  0.69197315    -0.20600
F2672       F  0.71419590  0.42237322  0.66222820    -0.23300
C2673       C  0.71050421  0.28853056  0.88959116    -0.06100
C2674       C  0.71913647  0.30743216  0.86533053    -0.00200
C2675       C  0.72358236  0.33882179  0.87039328    -0.08700
C2676       C  0.72363266  0.34956958  0.90078697    -0.06100
C2677       C  0.71925347  0.32975563  0.92593010    -0.00200
C2678       C  0.70753841  0.29984044  0.91954847    -0.08700
C2679       C  0.68862200  0.27998349  0.94174927     0.61700
H2680       H  0.70457571  0.26494124  0.88481739     0.12400
H2681       H  0.72837731  0.37340074  0.90509359     0.12400
C2682       C  0.72952621  0.36032130  0.84381945     0.62000
F2683       F  0.67846200  0.29559449  0.96769472    -0.23200
F2684       F  0.70787505  0.25494806  0.94984162    -0.20500
F2685       F  0.66033652  0.26957659  0.92760190    -0.20200
F2686       F  0.70298690  0.35956422  0.82394532    -0.20300
F2687       F  0.75792576  0.35143729  0.82822634    -0.20600
F2688       F  0.73317459  0.39013108  0.85356457    -0.23300
C2689       C  0.61574245  0.24738225  0.84364172    -0.06100
C2690       C  0.61976964  0.22172281  0.82455583    -0.00200
C2691       C  0.59607502  0.19841175  0.82582292    -0.08700
C2692       C  0.56755888  0.20315299  0.84422448    -0.06100
C2693       C  0.56260622  0.22998105  0.86176802    -0.00200
C2694       C  0.58781019  0.25208383  0.86211014    -0.08700
C2695       C  0.58651089  0.28002914  0.88262246     0.61700
H2696       H  0.63485873  0.26439833  0.84353813     0.12400
H2697       H  0.54885297  0.18579303  0.84522822     0.12400
C2698       C  0.60094940  0.16885431  0.80817207     0.62000
F2699       F  0.61558283  0.29627310  0.88183679    -0.23200
F2700       F  0.58167942  0.27098786  0.91237604    -0.20500
F2701       F  0.56130794  0.29949697  0.87357112    -0.20200
F2702       F  0.62933856  0.15408757  0.81831007    -0.20300
F2703       F  0.60388695  0.17483476  0.77719930    -0.20600
F2704       F  0.57473401  0.14937616  0.81226434    -0.23300
C2705       C  0.89998955  0.26048774  0.70323176    -0.06100
C2706       C  0.87589433  0.27584069  0.68580002    -0.00200
C2707       C  0.88538641  0.29215521  0.65936375    -0.08700
C2708       C  0.91835886  0.28932919  0.64922798    -0.06100
C2709       C  0.94145091  0.27078063  0.66469888    -0.00200
C2710       C  0.93294147  0.25810895  0.69328337    -0.08700
C2711       C  0.95865224  0.24207298  0.71294934     0.61700
H2712       H  0.89240705  0.24919204  0.72408712     0.12400
H2713       H  0.92544807  0.29894120  0.62745312     0.12400
C2714       C  0.86044819  0.31062711  0.64089350     0.62000
F2715       F  0.94490089  0.23001101  0.73925154    -0.23200
F2716       F  0.98209021  0.26295921  0.72159225    -0.20500
F2717       F  0.97392895  0.21852226  0.69695095    -0.20200
F2718       F  0.84829989  0.33450637  0.65862266    -0.20300
F2719       F  0.83455309  0.29240561  0.63196251    -0.20600
F2720       F  0.87445408  0.32278588  0.61475706    -0.23300
C2721       C  0.77205339  0.16717695  0.55560093    -0.06100
C2722       C  0.75498681  0.18728715  0.53592514    -0.00200
C2723       C  0.74336027  0.21592321  0.54800035    -0.08700
C2724       C  0.74675848  0.22119456  0.57954334    -0.06100
C2725       C  0.75937935  0.19903792  0.59954219    -0.00200
C2726       C  0.77317751  0.17187228  0.58736156    -0.08700
C2727       C  0.78495372  0.14635657  0.60783786     0.61700
H2728       H  0.78235433  0.14624391  0.54636672     0.12400
H2729       H  0.73801271  0.24252980  0.58939692     0.12400
C2730       C  0.72688822  0.24117528  0.52918109     0.62000
F2731       F  0.79613272  0.12110219  0.59145709    -0.23200
F2732       F  0.75848925  0.13763225  0.62562229    -0.20500
F2733       F  0.81059121  0.15614101  0.62607354    -0.20200
F2734       F  0.70107059  0.22999736  0.51204920    -0.20300
F2735       F  0.75014350  0.25445147  0.51041841    -0.20600
F2736       F  0.71369967  0.26423493  0.54747286    -0.23300
C2737       C  0.93482308  0.97603682  0.65544137    -0.06100
C2738       C  0.93764669  0.00480896  0.64166475    -0.00200
C2739       C  0.92443924  0.03078519  0.65725545    -0.08700
C2740       C  0.90703908  0.02669643  0.68492200    -0.06100
C2741       C  0.90285243  0.99783545  0.69793692    -0.00200
C2742       C  0.91821502  0.97207755  0.68362109    -0.08700
C2743       C  0.91852179  0.94006818  0.69682241     0.61700
H2744       H  0.94535758  0.95622810  0.64384001     0.12400
H2745       H  0.89726201  0.04635476  0.69717408     0.12400
C2746       C  0.92992928  0.06293334  0.64569686     0.62000
F2747       F  0.90314260  0.92057884  0.67659742    -0.23200
F2748       F  0.90277633  0.93800682  0.72479120    -0.20500
F2749       F  0.95094288  0.93029914  0.70063193    -0.20200
F2750       F  0.90978987  0.06886412  0.62087315    -0.20300
F2751       F  0.96265089  0.06618317  0.63717882    -0.20600
F2752       F  0.92276329  0.08455756  0.66804281    -0.23300
C2753       C  0.95049351  0.02428282  0.84841250    -0.06100
C2754       C  0.93743388  0.00927130  0.87400380    -0.00200
C2755       C  0.90692344  0.99423480  0.87058249    -0.08700
C2756       C  0.89247638  0.99217233  0.84147951    -0.06100
C2757       C  0.90693293  0.00417116  0.81481742    -0.00200
C2758       C  0.93518976  0.02328364  0.81912009    -0.08700
C2759       C  0.94945541  0.04371091  0.79435105     0.61700
H2760       H  0.97311011  0.03681852  0.85146650     0.12400
H2761       H  0.86885873  0.98123651  0.83973443     0.12400
C2762       C  0.88887917  0.98036531  0.89749992     0.62000
F2763       F  0.96688539  0.06750175  0.80712656    -0.23200
F2764       F  0.92472017  0.05671513  0.77668931    -0.20500
F2765       F  0.97128206  0.02727074  0.77605840    -0.20200
F2766       F  0.88989177  0.99963676  0.92262977    -0.20300
F2767       F  0.90342556  0.95253140  0.90459925    -0.20600
F2768       F  0.85592791  0.97563053  0.89086811    -0.23300
C2769       C  0.77710820  0.08849971  0.76222632    -0.06100
C2770       C  0.78540509  0.10613323  0.73650203    -0.00200
C2771       C  0.80715927  0.09256606  0.71432712    -0.08700
C2772       C  0.82340713  0.06471627  0.72085106    -0.06100
C2773       C  0.81758889  0.04885108  0.74791805    -0.00200
C2774       C  0.79197946  0.05960928  0.76775496    -0.08700
C2775       C  0.77869768  0.03980691  0.79324883     0.61700
H2776       H  0.75918631  0.09767897  0.77840734     0.12400
H2777       H  0.84163259  0.05557665  0.70500225     0.12400
C2778       C  0.81262672  0.10637334  0.68323508     0.62000
F2779       F  0.75107717  0.05291286  0.80712802    -0.23200
F2780       F  0.80231985  0.03509998  0.81555606    -0.20500
F2781       F  0.76952818  0.01207815  0.78103036    -0.20200
F2782       F  0.83567954  0.12902757  0.68530241    -0.20300
F2783       F  0.78306047  0.11805076  0.67269495    -0.20600
F2784       F  0.82392546  0.08493888  0.66211984    -0.23300
C2785       C  0.72386941  0.58806591  0.71445972    -0.06100
C2786       C  0.73263054  0.60182774  0.74240022    -0.00200
C2787       C  0.72110935  0.58882224  0.76989461    -0.08700
C2788       C  0.69885866  0.56443965  0.76820167    -0.06100
C2789       C  0.68624597  0.55322642  0.74008710    -0.00200
C2790       C  0.70258226  0.56290694  0.71280291    -0.08700
C2791       C  0.69949157  0.54794508  0.68147262     0.61700
H2792       H  0.73358294  0.59748818  0.69337711     0.12400
H2793       H  0.69123631  0.55406974  0.78937200     0.12400
C2794       C  0.73120565  0.60126502  0.80093647     0.62000
F2795       F  0.67940623  0.56581775  0.66301184    -0.23200
F2796       F  0.68722014  0.51883102  0.68268671    -0.20500
F2797       F  0.73043838  0.54554918  0.66791717    -0.20200
F2798       F  0.71561523  0.58650678  0.82482467    -0.20300
F2799       F  0.72302166  0.63193704  0.80306716    -0.20600
F2800       F  0.76495274  0.59735074  0.80451550    -0.23300
C2801       C  0.79021034  0.68230537  0.58915953    -0.06100
C2802       C  0.76203720  0.68056949  0.60817753    -0.00200
C2803       C  0.73322866  0.66638123  0.59614112    -0.08700
C2804       C  0.73363759  0.65618371  0.56550352    -0.06100
C2805       C  0.76143243  0.65883889  0.54657319    -0.00200
C2806       C  0.79078723  0.67113950  0.55886587    -0.08700
C2807       C  0.82328480  0.67104541  0.54117959     0.61700
H2808       H  0.81235937  0.69237217  0.59828121     0.12400
H2809       H  0.71190297  0.64580802  0.55588099     0.12400
C2810       C  0.70191956  0.66165857  0.61483587     0.62000
F2811       F  0.82223524  0.69240047  0.51805416    -0.23200
F2812       F  0.82946151  0.64248914  0.52875591    -0.20500
F2813       F  0.84970593  0.67804071  0.55990503    -0.20200
F2814       F  0.68940492  0.68949492  0.62475390    -0.20300
F2815       F  0.70884943  0.64310158  0.63964256    -0.20600
F2816       F  0.67739208  0.64770634  0.59800213    -0.23300
C2817       C  0.62066034  0.72791008  0.65783843    -0.06100
C2818       C  0.63010772  0.75347240  0.67526631    -0.00200
C2819       C  0.60567421  0.77637424  0.68147492    -0.08700
C2820       C  0.57346717  0.77292915  0.66937386    -0.06100
C2821       C  0.56467944  0.74805083  0.65062603    -0.00200
C2822       C  0.58891087  0.72491143  0.64502052    -0.08700
C2823       C  0.58256408  0.69798191  0.62407774     0.61700
H2824       H  0.63893226  0.71018942  0.65350664     0.12400
H2825       H  0.55491222  0.79058129  0.67338657     0.12400
C2826       C  0.61308109  0.80437636  0.70066608     0.62000
F2827       F  0.61022694  0.67925558  0.62053671    -0.23200
F2828       F  0.57394386  0.70849711  0.59550778    -0.20500
F2829       F  0.55755720  0.68043478  0.63581348    -0.20200
F2830       F  0.63631932  0.82188646  0.68588464    -0.20300
F2831       F  0.62492607  0.79559853  0.72905040    -0.20600
F2832       F  0.58518058  0.82251860  0.70540846    -0.23300
C2833       C  0.82298533  0.92641118  0.72406035    -0.06100
C2834       C  0.82442044  0.94044682  0.75319154    -0.00200
C2835       C  0.80759200  0.92614207  0.77790980    -0.08700
C2836       C  0.79451313  0.89688002  0.77360258    -0.06100
C2837       C  0.79491570  0.88190794  0.74522415    -0.00200
C2838       C  0.80817839  0.89748118  0.71958786    -0.08700
C2839       C  0.80786651  0.88301893  0.68799261     0.61700
H2840       H  0.83497350  0.93754560  0.70502833     0.12400
H2841       H  0.78344606  0.88549367  0.79286998     0.12400
C2842       C  0.80232691  0.94036166  0.80940204     0.62000
F2843       F  0.82322493  0.90104858  0.66639648    -0.23200
F2844       F  0.77554238  0.87887105  0.67883470    -0.20500
F2845       F  0.82417512  0.85507408  0.68865646    -0.20200
F2846       F  0.76989221  0.93648542  0.81852504    -0.20300
F2847       F  0.80790332  0.97126846  0.81001063    -0.20600
F2848       F  0.82297273  0.92604501  0.83028040    -0.23300
C2849       C  0.75247322  0.78590277  0.89796215    -0.06100
C2850       C  0.76184719  0.80350531  0.87257626    -0.00200
C2851       C  0.76227754  0.83549508  0.87528457    -0.08700
C2852       C  0.75653734  0.84846897  0.90409468    -0.06100
C2853       C  0.75080777  0.83077156  0.93045291    -0.00200
C2854       C  0.74454694  0.79923958  0.92642379    -0.08700
C2855       C  0.72472495  0.78013050  0.94864837     0.61700
H2856       H  0.74937104  0.76155780  0.89494291     0.12400
H2857       H  0.75751888  0.87294896  0.90651225     0.12400
C2858       C  0.76791557  0.85600169  0.84793575     0.62000
F2859       F  0.70382199  0.76106364  0.93272723    -0.23200
F2860       F  0.70475527  0.79805928  0.96743255    -0.20500
F2861       F  0.74586226  0.76215553  0.96598921    -0.20200
F2862       F  0.74497287  0.84981501  0.82537697    -0.20300
F2863       F  0.79951858  0.85112457  0.83662456    -0.20600
F2864       F  0.76469999  0.88654304  0.85562434    -0.23300
C2865       C  0.92085072  0.72727109  0.82007011    -0.06100
C2866       C  0.88912313  0.72919200  0.83295584    -0.00200
C2867       C  0.88604317  0.73704928  0.86434925    -0.08700
C2868       C  0.91468683  0.74383630  0.88137166    -0.06100
C2869       C  0.94662498  0.74407043  0.86821229    -0.00200
C2870       C  0.94977310  0.73418228  0.83694235    -0.08700
C2871       C  0.98275369  0.73044572  0.82057350     0.61700
H2872       H  0.92264769  0.72112771  0.79605898     0.12400
H2873       H  0.91208124  0.74982266  0.90534207     0.12400
C2874       C  0.85235159  0.73890534  0.87969418     0.62000
F2875       F  0.99806980  0.70368474  0.82989666    -0.23200
F2876       F  0.00269949  0.75486202  0.82650922    -0.20500
F2877       F  0.97899946  0.72871474  0.78908299    -0.20200
F2878       F  0.83621953  0.71162131  0.87574721    -0.20300
F2879       F  0.83371255  0.76218702  0.86684280    -0.20600
F2880       F  0.85471654  0.74458085  0.91084241    -0.23300
loop_ 
_geom_bond_atom_site_label_1 
_geom_bond_atom_site_label_2 
_geom_bond_distance 
_geom_bond_site_symmetry_2 
_ccdc_geom_bond_type 
Zr1           O2   2.441       .  S
Zr1           O3   2.446       .  S
Zr1           O4   2.438       .  S
Zr1           O7   2.412       .  S
Zr1           O9   2.376       .  S
Zr1          O10   2.386       .  S
Zr1          O11   2.401       .  S
Zr1          O12   2.413       .  S
O2           H58   0.990       .  S
O2           H66   0.990       .  S
O3           C23   1.287       .  A
O4           C25   1.287       .  A
O5          Zr15   2.510       .  S
O5           C24   1.299       .  A
O6          Zr14   2.490       .  S
O6           C25   1.295       .  A
O7           C24   1.280       .  A
O8          Zr16   2.376       .  S
O8           C23   1.273       .  A
O9          Zr14   2.401       .  S
O9          Zr16   2.392       .  S
O10         Zr15   2.389       .  S
O10         Zr16   2.365       .  S
O10          H45   0.966       .  S
O11         Zr14   2.403       .  S
O11         Zr31   2.399       .  S
O11          H48   0.965       .  S
O12         Zr15   2.403       .  S
O12         Zr31   2.407       .  S
Zr13         O38   2.444       .  S
Zr13         O32   2.424       .  S
Zr13         O40   2.394       .  S
Zr13         O28   2.420       .  S
Zr13         O19   2.404       .  S
Zr13         O20   2.395       .  S
Zr13         O21   2.373       .  S
Zr13         O22   2.390       .  S
Zr14         O33   2.435       .  S
Zr14         O26   2.434       .  S
Zr14         O27   2.485       .  S
Zr14         O20   2.405       .  S
Zr14         O21   2.406       .  S
Zr15         O17   2.435       .  S
Zr15         O39   2.437       .  S
Zr15         O41   2.488       .  S
Zr15         O19   2.404       .  S
Zr15         O22   2.411       .  S
Zr16         O42   2.436       .  S
Zr16         O43   2.435       .  S
Zr16         O18   2.436       .  S
Zr16         O19   2.379       .  S
Zr16         O20   2.371       .  S
O17          H54   0.990       .  S
O18          H49   0.990       .  S
O18          H63   0.990       .  S
O20          H46   0.964       .  S
O21         Zr31   2.383       .  S
O22         Zr31   2.374       .  S
O22          H47   0.966       .  S
C23        C2850   1.470       .  S
C24        C2866   1.497       .  S
C25        C2837   1.505       .  S
O26          H62   0.990       .  S
O27          C29   1.294       .  A
O28          C29   1.283       .  A
C29        C2818   1.511       .  S
O30         Zr31   2.435       .  S
O30          H59   0.990       .  S
Zr31         O34   2.434       .  S
Zr31         O35   2.439       .  S
Zr31         O36   2.434       .  S
O32          C37   1.278       .  A
O33          H50   0.990       .  S
O33          H65   0.990       .  S
O34          H51   0.989       .  S
O35          H55   0.990       .  S
O35          H64   0.990       .  S
O36          C37   1.285       .  A
C37        C2802   1.506       .  S
O38          H57   0.990       .  S
O38          H61   0.990       .  S
O39          H53   0.990       .  S
O39          H60   0.990       .  S
O40          C44   1.276       .  A
O41          C44   1.295       .  A
O42          H52   0.990       .  S
O43          H56   0.990       .  S
C44        C2786   1.492       .  S
C67          C68   1.553       .  S
C67          C73   1.535   1_565  S
C67          C71   1.531       .  S
C67        C2757   1.557   1_565  S
C68          H75   1.084       .  S
C68          C69   1.373       .  D
C69          C70   1.552       .  S
C69        C2834   1.516       .  S
C70          C74   1.552   1_565  S
C70          C72   1.557       .  S
C70          H76   1.110       .  S
C71          H77   1.077       .  S
C71          C72   1.363       .  D
C72        C2741   1.490       .  S
C73          H78   1.086       .  S
C73          C74   1.363       .  D
C74        C2773   1.500       .  S
Zr79         O80   2.439       .  S
Zr79         O81   2.454       .  S
Zr79         O82   2.458       .  S
Zr79         O85   2.428       .  S
Zr79         O87   2.386       .  S
Zr79         O88   2.391       .  S
Zr79         O89   2.411       .  S
Zr79         O90   2.395       .  S
O80         H136   0.989       .  S
O80         H144   0.990       .  S
O81         C101   1.286       .  A
O82         C103   1.288       .  A
O83         Zr93   2.427       .  S
O83         C102   1.282       .  A
O84         Zr92   2.466       .  S
O84         C103   1.291       .  A
O85         C102   1.284       .  A
O86         Zr94   2.398       .  S
O86         C101   1.279       .  A
O87         Zr92   2.403       .  S
O87         Zr94   2.384       .  S
O88         Zr93   2.396       .  S
O88         Zr94   2.386       .  S
O88         H123   0.965       .  S
O89         Zr92   2.406       .  S
O89        Zr109   2.397       .  S
O89         H126   0.966       .  S
O90         Zr93   2.393       .  S
O90        Zr109   2.380       .  S
Zr91        O116   2.442       .  S
Zr91        O110   2.418       .  S
Zr91        O118   2.417       .  S
Zr91        O106   2.385       .  S
Zr91         O97   2.381       .  S
Zr91         O98   2.400       .  S
Zr91         O99   2.378       .  S
Zr91        O100   2.372       .  S
Zr92        O111   2.437       .  S
Zr92        O104   2.434       .  S
Zr92        O105   2.464       .  S
Zr92         O98   2.407       .  S
Zr92         O99   2.393       .  S
Zr93         O95   2.436       .  S
Zr93        O117   2.436       .  S
Zr93        O119   2.452       .  S
Zr93         O97   2.391       .  S
Zr93        O100   2.386       .  S
Zr94        O120   2.437       .  S
Zr94        O121   2.436       .  S
Zr94         O96   2.437       .  S
Zr94         O97   2.389       .  S
Zr94         O98   2.389       .  S
O95         H132   0.990       .  S
O96         H127   0.990       .  S
O96         H141   0.990       .  S
O98         H124   0.966       .  S
O99        Zr109   2.363       .  S
O100       Zr109   2.384       .  S
O100        H125   0.966       .  S
C101       C2725   1.481       .  S
C102       C2706   1.474       .  S
C103       C2770   1.515       .  S
O104        H140   0.990       .  S
O105        C107   1.289       .  A
O106        C107   1.277       .  A
C107       C2690   1.488       .  S
O108       Zr109   2.434       .  S
O108        H137   0.990       .  S
Zr109       O112   2.435       .  S
Zr109       O113   2.438       .  S
Zr109       O114   2.415       .  S
O110        C115   1.280       .  A
O111        H128   0.990       .  S
O111        H143   0.990       .  S
O112        H129   0.990       .  S
O113        H133   0.990       .  S
O113        H142   0.990       .  S
O114        C115   1.280       .  A
C115       C2674   1.461       .  S
O116        H135   0.990       .  S
O116        H139   0.991       .  S
O117        H131   0.990       .  S
O117        H138   0.990       .  S
O118        C122   1.283       .  A
O119        C122   1.286       .  A
O120        H130   0.990       .  S
O121        H134   0.990       .  S
C122       C2658   1.504       .  S
C145        C146   1.541       .  S
C145        C151   1.548       .  S
C145        C149   1.535       .  S
C145       C2789   1.556       .  S
C146        H153   1.085       .  S
C146        C147   1.360       .  D
C147        C148   1.555       .  S
C147       C2626   1.499       .  S
C148        C152   1.554       .  S
C148        C150   1.545       .  S
C148        H154   1.105       .  S
C149        H155   1.087       .  S
C149        C150   1.366       .  D
C150       C2661   1.499       .  S
C151        H156   1.083       .  S
C151        C152   1.378       .  D
C152       C2645   1.515       .  S
C157        C158   1.527       .  S
C157        C163   1.551       .  S
C157        C161   1.542       .  S
C157       C2613   1.546       .  S
C158        H165   1.088       .  S
C158        C159   1.354       .  D
C159        C160   1.542       .  S
C159       C2578   1.480       .  S
C160        C164   1.536       .  S
C160        C162   1.545       .  S
C160        H166   1.111       .  S
C161        H167   1.074       .  S
C161        C162   1.371       .  D
C162       C2805   1.491       .  S
C163        H168   1.085       .  S
C163        C164   1.368       .  D
C164       C2594   1.492       .  S
Zr169       O170   2.441       .  S
Zr169       O171   2.442       .  S
Zr169       O172   2.424       .  S
Zr169       O175   2.415       .  S
Zr169       O177   2.381       .  S
Zr169       O178   2.377       .  S
Zr169       O179   2.405       .  S
Zr169       O180   2.402       .  S
O170        H226   0.990       .  S
O170        H234   0.990       .  S
O171        C191   1.283       .  A
O172        C193   1.283       .  A
O173       Zr183   2.461       .  S
O173        C192   1.291       .  A
O174       Zr182   2.498       .  S
O174        C193   1.295       .  A
O175        C192   1.279       .  A
O176       Zr184   2.383       .  S
O176        C191   1.275       .  A
O177       Zr182   2.401       .  S
O177       Zr184   2.386       .  S
O178       Zr183   2.393       .  S
O178       Zr184   2.379       .  S
O178        H213   0.966       .  S
O179       Zr182   2.405       .  S
O179       Zr199   2.391       .  S
O179        H216   0.965       .  S
O180       Zr183   2.393       .  S
O180       Zr199   2.400       .  S
Zr181       O206   2.444       .  S
Zr181       O200   2.411       .  S
Zr181       O208   2.420       .  S
Zr181       O196   2.412       .  S
Zr181       O187   2.384       .  S
Zr181       O188   2.406       .  S
Zr181       O189   2.381       .  S
Zr181       O190   2.380       .  S
Zr182       O201   2.436       .  S
Zr182       O194   2.435       .  S
Zr182       O195   2.479       .  S
Zr182       O188   2.416       .  S
Zr182       O189   2.409       .  S
Zr183       O185   2.435       .  S
Zr183       O207   2.438       .  S
Zr183       O209   2.457       .  S
Zr183       O187   2.395       .  S
Zr183       O190   2.404       .  S
Zr184       O210   2.440       .  S
Zr184       O211   2.435       .  S
Zr184       O186   2.436       .  S
Zr184       O187   2.377       .  S
Zr184       O188   2.380       .  S
O185        H222   0.990       .  S
O186        H217   0.991       .  S
O186        H231   0.990       .  S
O188        H214   0.965       .  S
O189       Zr199   2.375       .  S
O190       Zr199   2.381       .  S
O190        H215   0.966       .  S
C191       C2498   1.483       .  S
C192       C2562   1.494       .  S
C193       C2514   1.513       .  S
O194        H230   0.990       .  S
O195        C197   1.293       .  A
O196        C197   1.278       .  A
C197       C2530   1.482       .  S
O198       Zr199   2.435       .  S
O198        H227   0.990       .  S
Zr199       O202   2.437       .  S
Zr199       O203   2.438       .  S
Zr199       O204   2.421       .  S
O200        C205   1.276       .  A
O201        H218   0.990       .  S
O201        H233   0.990       .  S
O202        H219   0.990       .  S
O203        H223   0.990       .  S
O203        H232   0.990       .  S
O204        C205   1.281       .  A
C205       C2610   1.478       .  S
O206        H225   0.990       .  S
O206        H229   0.990       .  S
O207        H221   0.990       .  S
O207        H228   0.990       .  S
O208        C212   1.284       .  A
O209        C212   1.288       .  A
O210        H220   0.990       .  S
O211        H224   0.990       .  S
C212       C2546   1.498       .  S
C235        C236   1.538       .  S
C235        C241   1.534       .  S
C235        C239   1.541       .  S
C235       C2853   1.528       .  S
C236        H243   1.087       .  S
C236        C237   1.358       .  D
C237        C238   1.530   1_556  S
C237       C2482   1.471       .  S
C238        C242   1.523   1_554  S
C238        C240   1.533       .  S
C238        H244   1.111       .  S
C239        H245   1.074       .  S
C239        C240   1.369   1_556  D
C240       C2501   1.474       .  S
C241        H246   1.087       .  S
C241        C242   1.359       .  D
C242       C2469   1.467       .  S
C247        C248   1.524       .  S
C247        C253   1.526       .  S
C247        C251   1.551       .  S
C247       C2434   1.538       .  S
C248        H255   1.082       .  S
C248        C249   1.359       .  D
C249        C250   1.545       .  S
C249       C2418   1.482       .  S
C250        C254   1.547       .  S
C250        C252   1.560       .  S
C250        H256   1.089       .  S
C251        H257   1.080       .  S
C251        C252   1.384       .  D
C252       C2450   1.534       .  S
C253        H258   1.085       .  S
C253        C254   1.351       .  D
C254       C2565   1.494       .  S
C259        C260   1.534       .  S
C259        C265   1.533       .  S
C259        C263   1.542       .  S
C259       C2354   1.551       .  S
C260        H267   1.087       .  S
C260        C261   1.367       .  D
C261        C262   1.570   1_565  S
C261       C2389   1.529       .  S
C262        C266   1.564       .  S
C262        C264   1.559       .  S
C262        H268   1.105       .  S
C263        H269   1.082   1_565  S
C263        C264   1.362   1_565  D
C264       C2370   1.500       .  S
C265        H270   1.082       .  S
C265        C266   1.365   1_565  D
C266       C2405   1.510       .  S
C271        C272   1.545       .  S
C271        C277   1.525       .  S
C271        C275   1.545       .  S
C271       C2677   1.540       .  S
C272        H279   1.085       .  S
C272        C273   1.368       .  D
C273        C274   1.548   1_556  S
C273       C2322   1.498       .  S
C274        C278   1.542       .  S
C274        C276   1.546       .  S
C274        H280   1.109       .  S
C275        H281   1.081       .  S
C275        C276   1.365   1_556  D
C276       C2306   1.494       .  S
C277        H282   1.087       .  S
C277        C278   1.362   1_556  D
C278       C2338   1.482       .  S
C283        C284   1.551       .  S
C283        C289   1.530       .  S
C283        C287   1.539   1_554  S
C283       C2290   1.544       .  S
C284        H291   1.083       .  S
C284        C285   1.361   1_554  D
C285        C286   1.533       .  S
C285       C2274   1.488       .  S
C286        C290   1.547       .  S
C286        C288   1.552       .  S
C286        H292   1.108       .  S
C287        H293   1.073       .  S
C287        C288   1.371       .  D
C288       C2242   1.504       .  S
C289        H294   1.087       .  S
C289        C290   1.360   1_554  D
C290       C2258   1.489       .  S
C295        C296   1.525       .  S
C295        C301   1.531       .  S
C295        C299   1.553       .  S
C295       C2178   1.560       .  S
C296        H303   1.085       .  S
C296        C297   1.358       .  D
C297        C298   1.555       .  S
C297       C2226   1.490       .  S
C298        C302   1.548       .  S
C298        C300   1.558       .  S
C298        H304   1.091       .  S
C299        H305   1.076       .  S
C299        C300   1.386       .  D
C300       C2194   1.532       .  S
C301        H306   1.087       .  S
C301        C302   1.363       .  D
C302       C2210   1.506       .  S
C307        C308   1.559       .  S
C307        C313   1.542       .  S
C307        C311   1.535       .  S
C307       C2130   1.556       .  S
C308        H315   1.071       .  S
C308        C309   1.372       .  D
C309        C310   1.530       .  S
C309       C2162   1.499       .  S
C310        C314   1.543       .  S
C310        C312   1.545       .  S
C310        H316   1.109       .  S
C311        H317   1.075       .  S
C311        C312   1.360       .  D
C312       C2722   1.499       .  S
C313        H318   1.087       .  S
C313        C314   1.362       .  D
C314       C2146   1.487       .  S
C319        C320   1.525   1_455  S
C319        C325   1.530       .  S
C319        C323   1.562   1_455  S
C319       C2114   1.550       .  S
C320        H327   1.088       .  S
C320        C321   1.351       .  D
C321        C322   1.553       .  S
C321       C2533   1.495       .  S
C322        C326   1.546   1_655  S
C322        C324   1.548       .  S
C322        H328   1.109       .  S
C323        H329   1.083       .  S
C323        C324   1.385       .  D
C324       C2098   1.509       .  S
C325        H330   1.080       .  S
C325        C326   1.362       .  D
C326       C2082   1.482       .  S
Zr331       O332   2.443       .  S
Zr331       O333   2.441       .  S
Zr331       O334   2.453       .  S
Zr331       O337   2.404       .  S
Zr331       O339   2.376       .  S
Zr331       O340   2.392       .  S
Zr331       O341   2.401       .  S
Zr331       O342   2.405       .  S
O332        H388   0.990       .  S
O332        H396   0.991       .  S
O333        C353   1.282       .  A
O334        C355   1.287       .  A
O335       Zr345   2.432       .  S
O335        C354   1.283       .  A
O336       Zr344   2.473       .  S
O336        C355   1.291       .  A
O337        C354   1.280       .  A
O338       Zr346   2.411       .  S
O338        C353   1.281       .  A
O339       Zr344   2.402       .  S
O339       Zr346   2.387       .  S
O340       Zr345   2.410       .  S
O340       Zr346   2.373       .  S
O340        H375   0.966       .  S
O341       Zr344   2.399       .  S
O341       Zr361   2.380       .  S
O341        H378   0.964       .  S
O342       Zr345   2.402       .  S
O342       Zr361   2.384       .  S
Zr343       O368   2.440       .  S
Zr343       O362   2.441       .  S
Zr343       O370   2.438       .  S
Zr343       O358   2.431       .  S
Zr343       O349   2.403       .  S
Zr343       O350   2.410       .  S
Zr343       O351   2.388       .  S
Zr343       O352   2.376       .  S
Zr344       O363   2.436       .  S
Zr344       O356   2.435       .  S
Zr344       O357   2.454       .  S
Zr344       O350   2.406       .  S
Zr344       O351   2.408       .  S
Zr345       O347   2.434       .  S
Zr345       O369   2.441       .  S
Zr345       O371   2.467       .  S
Zr345       O349   2.392       .  S
Zr345       O352   2.390       .  S
Zr346       O372   2.436       .  S
Zr346       O373   2.436       .  S
Zr346       O348   2.437       .  S
Zr346       O349   2.399       .  S
Zr346       O350   2.379       .  S
O347        H384   0.990       .  S
O348        H379   0.990       .  S
O348        H393   0.990       .  S
O350        H376   0.963       .  S
O351       Zr361   2.381       .  S
O352       Zr361   2.377       .  S
O352        H377   0.966       .  S
C353       C2293   1.495       .  S
C354       C2421   1.465       .  S
C355       C2053   1.508       .  S
O356        H392   0.990       .  S
O357        C359   1.288       .  A
O358        C359   1.284       .  A
C359       C2085   1.480       .  S
O360       Zr361   2.434       .  S
O360        H389   0.990       .  S
Zr361       O364   2.435       .  S
Zr361       O365   2.438       .  S
Zr361       O366   2.398       .  S
O362        C367   1.283       .  A
O363        H380   0.990       .  S
O363        H395   0.990       .  S
O364        H381   0.990       .  S
O365        H385   0.990       .  S
O365        H394   0.989       .  S
O366        C367   1.279       .  A
C367       C2034   1.488       .  S
O368        H387   0.989       .  S
O368        H391   0.990       .  S
O369        H383   0.989       .  S
O369        H390   0.990       .  S
O370        C374   1.286       .  A
O371        C374   1.289       .  A
O372        H382   0.990       .  S
O373        H386   0.990       .  S
C374       C2066   1.503       .  S
C397        C398   1.524       .  S
C397        C403   1.542       .  S
C397        C401   1.532       .  S
C397       C2037   1.537       .  S
C398        H405   1.087       .  S
C398        C399   1.361       .  D
C399        C400   1.560       .  S
C399       C2018   1.507       .  S
C400        C404   1.552       .  S
C400        C402   1.545       .  S
C400        H406   1.106       .  S
C401        H407   1.080       .  S
C401        C402   1.361       .  D
C402       C1986   1.482       .  S
C403        H408   1.084       .  S
C403        C404   1.369       .  D
C404       C2002   1.497       .  S
C409        C410   1.524       .  S
C409        C415   1.527       .  S
C409        C413   1.561       .  S
C409       C1938   1.552       .  S
C410        H417   1.087       .  S
C410        C411   1.359       .  D
C411        C412   1.562       .  S
C411       C1970   1.513       .  S
C412        C416   1.558       .  S
C412        C414   1.550       .  S
C412        H418   1.108       .  S
C413        H419   1.077       .  S
C413        C414   1.384       .  D
C414       C1957   1.517       .  S
C415        H420   1.082       .  S
C415        C416   1.361       .  D
C416       C2549   1.503       .  S
Zr421       O422   2.445       .  S
Zr421       O423   2.424       .  S
Zr421       O424   2.451       .  S
Zr421       O427   2.399       .  S
Zr421       O429   2.377       .  S
Zr421       O430   2.392       .  S
Zr421       O431   2.397       .  S
Zr421       O432   2.398       .  S
O422        H478   0.990       .  S
O422        H486   0.991       .  S
O423        C443   1.280       .  A
O424        C445   1.286       .  A
O425       Zr435   2.468       .  S
O425        C444   1.291       .  A
O426       Zr434   2.472       .  S
O426        C445   1.291       .  A
O427        C444   1.280       .  A
O428       Zr436   2.428       .  S
O428        C443   1.281       .  A
O429       Zr434   2.409       .  S
O429       Zr436   2.384       .  S
O430       Zr435   2.406       .  S
O430       Zr436   2.375       .  S
O430        H465   0.966       .  S
O431       Zr434   2.411       .  S
O431       Zr451   2.389       .  S
O431        H468   0.965       .  S
O432       Zr435   2.405       .  S
O432       Zr451   2.380       .  S
Zr433       O458   2.446       .  S
Zr433       O452   2.431       .  S
Zr433       O460   2.396       .  S
Zr433       O448   2.381       .  S
Zr433       O439   2.391       .  S
Zr433       O440   2.408       .  S
Zr433       O441   2.368       .  S
Zr433       O442   2.372       .  S
Zr434       O453   2.434       .  S
Zr434       O446   2.435       .  S
Zr434       O447   2.466       .  S
Zr434       O440   2.412       .  S
Zr434       O441   2.398       .  S
Zr435       O437   2.435       .  S
Zr435       O459   2.436       .  S
Zr435       O461   2.505       .  S
Zr435       O439   2.391       .  S
Zr435       O442   2.400       .  S
Zr436       O462   2.436       .  S
Zr436       O463   2.437       .  S
Zr436       O438   2.438       .  S
Zr436       O439   2.400       .  S
Zr436       O440   2.398       .  S
O437        H474   0.989       .  S
O438        H469   0.990       .  S
O438        H483   0.990       .  S
O440        H466   0.965       .  S
O441       Zr451   2.374       .  S
O442       Zr451   2.391       .  S
O442        H467   0.966       .  S
C443       C1922   1.477       .  S
C444       C2309   1.483       .  S
C445       C1973   1.514       .  S
O446        H482   0.990       .  S
O447        C449   1.289       .  A
O448        C449   1.272       .  A
C449       C2133   1.473       .  S
O450       Zr451   2.436       .  S
O450        H479   0.990       .  S
Zr451       O454   2.436       .  S
Zr451       O455   2.436       .  S
Zr451       O456   2.405       .  S
O452        C457   1.282       .  A
O453        H470   0.990       .  S
O453        H485   0.988       .  S
O454        H471   0.990       .  S
O455        H475   0.990       .  S
O455        H484   0.990       .  S
O456        C457   1.277       .  A
C457       C1906   1.469       .  S
O458        H477   0.991       .  S
O458        H481   0.991       .  S
O459        H473   0.990       .  S
O459        H480   0.990       .  S
O460        C464   1.277       .  A
O461        C464   1.296       .  A
O462        H472   0.990       .  S
O463        H476   0.990       .  S
C464       C1890   1.506       .  S
C487        C488   1.547       .  S
C487        C493   1.536   1_545  S
C487        C491   1.560       .  S
C487       C1861   1.573       .  S
C488        H495   1.085       .  S
C488        C489   1.374       .  D
C489        C490   1.539       .  S
C489       C1893   1.503       .  S
C490        C494   1.552   1_545  S
C490        C492   1.543       .  S
C490        H496   1.110       .  S
C491        H497   1.077       .  S
C491        C492   1.376       .  D
C492       C1874   1.509       .  S
C493        H498   1.084       .  S
C493        C494   1.362       .  D
C494       C2517   1.504       .  S
C499        C500   1.545       .  S
C499        C505   1.543       .  S
C499        C503   1.530       .  S
C499       C1829   1.538       .  S
C500        H507   1.086       .  S
C500        C501   1.360       .  D
C501        C502   1.545       .  S
C501       C2693   1.496       .  S
C502        C506   1.548       .  S
C502        C504   1.550       .  S
C502        H508   1.108       .  S
C503        H509   1.086       .  S
C503        C504   1.363       .  D
C504       C1810   1.491       .  S
C505        H510   1.081       .  S
C505        C506   1.367       .  D
C506       C1845   1.497       .  S
Zr511       O512   2.441       .  S
Zr511       O513   2.392       .  S
Zr511       O514   2.393       .  S
Zr511       O517   2.406       .  S
Zr511       O519   2.383       .  S
Zr511       O520   2.380       .  S
Zr511       O521   2.389       .  S
Zr511       O522   2.384       .  S
O512        H568   0.990       .  S
O512        H576   0.990       .  S
O513        C533   1.275       .  A
O514        C535   1.275       .  A
O515       Zr525   2.496       .  S
O515        C534   1.297       .  A
O516       Zr524   2.477       .  S
O516        C535   1.291       .  A
O517        C534   1.278       .  A
O518       Zr526   2.428       .  S
O518        C533   1.282       .  A
O519       Zr524   2.401       .  S
O519       Zr526   2.379       .  S
O520       Zr525   2.389       .  S
O520       Zr526   2.378       .  S
O520        H555   0.966       .  S
O521       Zr524   2.412       .  S
O521       Zr541   2.372       .  S
O521        H558   0.965       .  S
O522       Zr525   2.392       .  S
O522       Zr541   2.380       .  S
Zr523       O548   2.445       .  S
Zr523       O542   2.442       .  S
Zr523       O550   2.416       .  S
Zr523       O538   2.413       .  S
Zr523       O529   2.405       .  S
Zr523       O530   2.407       .  S
Zr523       O531   2.377       .  S
Zr523       O532   2.395       .  S
Zr524       O543   2.436       .  S
Zr524       O536   2.435       .  S
Zr524       O537   2.494       .  S
Zr524       O530   2.402       .  S
Zr524       O531   2.387       .  S
Zr525       O527   2.434       .  S
Zr525       O549   2.435       .  S
Zr525       O551   2.481       .  S
Zr525       O529   2.406       .  S
Zr525       O532   2.409       .  S
Zr526       O552   2.434       .  S
Zr526       O553   2.437       .  S
Zr526       O528   2.437       .  S
Zr526       O529   2.396       .  S
Zr526       O530   2.396       .  S
O527        H564   0.990       .  S
O528        H559   0.990       .  S
O528        H573   0.990       .  S
O530        H556   0.966       .  S
O531       Zr541   2.376       .  S
O532       Zr541   2.388       .  S
O532        H557   0.966       .  S
C533       C1778   1.457       .  S
C534       C1762   1.491       .  S
C535       C2197   1.478       .  S
O536        H572   0.990       .  S
O537        C539   1.296       .  A
O538        C539   1.280       .  A
C539       C1842   1.499       .  S
O540       Zr541   2.436       .  S
O540        H569   0.990       .  S
Zr541       O544   2.439       .  S
Zr541       O545   2.436       .  S
Zr541       O546   2.385       .  S
O542        C547   1.281       .  A
O543        H560   0.990       .  S
O543        H575   0.990       .  S
O544        H561   0.990       .  S
O545        H565   0.990       .  S
O545        H574   0.990       .  S
O546        C547   1.272       .  A
C547       C1794   1.470       .  S
O548        H567   0.991       .  S
O548        H571   0.990       .  S
O549        H563   0.990       .  S
O549        H570   0.990       .  S
O550        C554   1.278       .  A
O551        C554   1.293       .  A
O552        H562   0.990       .  S
O553        H566   0.990       .  S
C554       C2373   1.488       .  S
C577        C578   1.519       .  S
C577        C583   1.525   1_655  S
C577        C581   1.566       .  S
C577       C1746   1.546       .  S
C578        H585   1.085       .  S
C578        C579   1.357       .  D
C579        C580   1.540       .  S
C579       C2709   1.477       .  S
C580        C584   1.555   1_655  S
C580        C582   1.545       .  S
C580        H586   1.106   1_655  S
C581        H587   1.082       .  S
C581        C582   1.381       .  D
C582       C1730   1.506       .  S
C583        H588   1.087       .  S
C583        C584   1.358       .  D
C584       C1765   1.497       .  S
C589        C590   1.544   1_455  S
C589        C595   1.548       .  S
C589        C593   1.522       .  S
C589       C1717   1.528       .  S
C590        H597   1.083       .  S
C590        C591   1.368       .  D
C591        C592   1.540       .  S
C591       C1925   1.487       .  S
C592        C596   1.540   1_655  S
C592        C594   1.538   1_655  S
C592        H598   1.111       .  S
C593        H599   1.087       .  S
C593        C594   1.357       .  D
C594       C1682   1.473       .  S
C595        H600   1.084       .  S
C595        C596   1.364       .  D
C596       C1701   1.485       .  S
Zr601       O602   2.441       .  S
Zr601       O603   2.412       .  S
Zr601       O604   2.430       .  S
Zr601       O607   2.403       .  S
Zr601       O609   2.375   1_545  S
Zr601       O610   2.386   1_554  S
Zr601       O611   2.392   1_455  S
Zr601       O612   2.400   1_455  S
O602        H658   0.991       .  S
O602        H666   0.990       .  S
O603        C623   1.280       .  A
O604        C625   1.284       .  A
O605       Zr615   2.430   1_455  S
O605        C624   1.284   1_556  A
O606       Zr614   2.472       .  S
O606        C625   1.292   1_565  A
O607        C624   1.280       .  A
O608       Zr616   2.447   1_545  S
O608        C623   1.286   1_556  A
O609       Zr614   2.399       .  S
O609       Zr616   2.377   1_554  S
O610       Zr615   2.396   1_455  S
O610       Zr616   2.366   1_545  S
O610        H645   0.965       .  S
O611       Zr614   2.408   1_645  S
O611       Zr631   2.388       .  S
O611        H648   0.955       .  S
O612       Zr615   2.410   1_554  S
O612       Zr631   2.383       .  S
Zr613       O638   2.446       .  S
Zr613       O632   2.421       .  S
Zr613       O640   2.428       .  S
Zr613       O628   2.394       .  S
Zr613       O619   2.395   1_665  S
Zr613       O620   2.402   1_655  S
Zr613       O621   2.381   1_556  S
Zr613       O622   2.372   1_565  S
Zr614       O633   2.435   1_455  S
Zr614       O626   2.435       .  S
Zr614       O627   2.483       .  S
Zr614       O620   2.398   1_554  S
Zr614       O621   2.392   1_455  S
Zr615       O617   2.434       .  S
Zr615       O639   2.437   1_655  S
Zr615       O641   2.472       .  S
Zr615       O619   2.390   1_655  S
Zr615       O622   2.383       .  S
Zr616       O642   2.436   1_565  S
Zr616       O643   2.437       .  S
Zr616       O618   2.436       .  S
Zr616       O619   2.410   1_565  S
Zr616       O620   2.394       .  S
O617        H654   0.990       .  S
O618        H649   0.990       .  S
O618        H663   0.990   1_556  S
O620        H646   0.965       .  S
O621       Zr631   2.384   1_565  S
O622       Zr631   2.382   1_556  S
O622        H647   0.965       .  S
C623       C1653   1.495       .  S
C624       C1714   1.465       .  S
C625       C1666   1.489       .  S
O626        H662   0.990       .  S
O627        C629   1.294   1_455  A
O628        C629   1.277   1_556  A
C629       C1634   1.487   1_554  S
O630       Zr631   2.436       .  S
O630        H659   0.989       .  S
Zr631       O634   2.434       .  S
Zr631       O635   2.440       .  S
Zr631       O636   2.403   1_545  S
O632        C637   1.283       .  A
O633        H650   0.990       .  S
O633        H665   0.990   1_655  S
O634        H651   0.990   1_545  S
O635        H655   0.990   1_554  S
O635        H664   0.990       .  S
O636        C637   1.277   1_554  A
C637       C2485   1.466       .  S
O638        H657   0.990       .  S
O638        H661   0.990   1_655  S
O639        H653   0.990       .  S
O639        H660   0.990       .  S
O640        C644   1.283   1_565  A
O641        C644   1.291       .  A
O642        H652   0.990       .  S
O643        H656   0.990       .  S
C644       C2754   1.502       .  S
Zr667       O668   2.449       .  S
Zr667       O669   2.441       .  S
Zr667       O670   2.443       .  S
Zr667       O673   2.408       .  S
Zr667       O675   2.378       .  S
Zr667       O676   2.392       .  S
Zr667       O677   2.405       .  S
Zr667       O678   2.397       .  S
O668        H724   0.989       .  S
O668        H732   0.990       .  S
O669        C689   1.284       .  A
O670        C691   1.283       .  A
O671       Zr681   2.462       .  S
O671        C690   1.290       .  A
O672       Zr680   2.496       .  S
O672        C691   1.296       .  A
O673        C690   1.279       .  A
O674       Zr682   2.421       .  S
O674        C689   1.280       .  A
O675       Zr680   2.412       .  S
O675       Zr682   2.392       .  S
O676       Zr681   2.404       .  S
O676       Zr682   2.379       .  S
O676        H711   0.965       .  S
O677       Zr680   2.414       .  S
O677       Zr697   2.388       .  S
O677        H714   0.964       .  S
O678       Zr681   2.403       .  S
O678       Zr697   2.374       .  S
Zr679       O704   2.440       .  S
Zr679       O698   2.435       .  S
Zr679       O706   2.410       .  S
Zr679       O694   2.376       .  S
Zr679       O685   2.394       .  S
Zr679       O686   2.401       .  S
Zr679       O687   2.383       .  S
Zr679       O688   2.374       .  S
Zr680       O699   2.436       .  S
Zr680       O692   2.435       .  S
Zr680       O693   2.503       .  S
Zr680       O686   2.400       .  S
Zr680       O687   2.408       .  S
Zr681       O683   2.434       .  S
Zr681       O705   2.437       .  S
Zr681       O707   2.501       .  S
Zr681       O685   2.387       .  S
Zr681       O688   2.388       .  S
Zr682       O708   2.436       .  S
Zr682       O709   2.437       .  S
Zr682       O684   2.437       .  S
Zr682       O685   2.403       .  S
Zr682       O686   2.391       .  S
O683        H720   0.990       .  S
O684        H715   0.990       .  S
O684        H729   0.990       .  S
O686        H712   0.966       .  S
O687       Zr697   2.378       .  S
O688       Zr697   2.384       .  S
O688        H713   0.966       .  S
C689       C1698   1.483       .  S
C690       C1618   1.469       .  S
C691       C1602   1.509       .  S
O692        H728   0.990       .  S
O693        C695   1.297       .  A
O694        C695   1.276       .  A
C695       C1570   1.504       .  S
O696       Zr697   2.436       .  S
O696        H725   0.990       .  S
Zr697       O700   2.436       .  S
Zr697       O701   2.439       .  S
Zr697       O702   2.398       .  S
O698        C703   1.283       .  A
O699        H716   0.990       .  S
O699        H731   0.990       .  S
O700        H717   0.990       .  S
O701        H721   0.990       .  S
O701        H730   0.990       .  S
O702        C703   1.277       .  A
C703       C1586   1.469       .  S
O704        H723   0.990       .  S
O704        H727   0.990       .  S
O705        H719   0.990       .  S
O705        H726   0.990       .  S
O706        C710   1.277       .  A
O707        C710   1.297       .  A
O708        H718   0.990       .  S
O709        H722   0.990       .  S
C710       C1557   1.507       .  S
C733        C734   1.518       .  S
C733        C739   1.530   1_545  S
C733        C737   1.565       .  S
C733       C1538   1.556       .  S
C734        H741   1.088       .  S
C734        C735   1.351       .  D
C735        C736   1.564       .  S
C735       C1605   1.502       .  S
C736        C740   1.562   1_545  S
C736        C738   1.556       .  S
C736        H742   1.090       .  S
C737        H743   1.077       .  S
C737        C738   1.398       .  D
C738       C1669   1.550       .  S
C739        H744   1.087       .  S
C739        C740   1.360       .  D
C740       C2069   1.510       .  S
Zr745       O746   2.442       .  S
Zr745       O747   2.445       .  S
Zr745       O748   2.432       .  S
Zr745       O751   2.408       .  S
Zr745       O753   2.377       .  S
Zr745       O754   2.384       .  S
Zr745       O755   2.402   1_545  S
Zr745       O756   2.402   1_545  S
O746        H802   0.989       .  S
O746        H810   0.990       .  S
O747        C767   1.286       .  A
O748        C769   1.283       .  A
O749       Zr759   2.485       .  S
O749        C768   1.293       .  A
O750       Zr758   2.469   1_655  S
O750        C769   1.292   1_565  A
O751        C768   1.278       .  A
O752       Zr760   2.412   1_655  S
O752        C767   1.279       .  A
O753       Zr758   2.408   1_645  S
O753       Zr760   2.380   1_655  S
O754       Zr759   2.403       .  S
O754       Zr760   2.376   1_655  S
O754        H789   0.966       .  S
O755       Zr758   2.412   1_655  S
O755       Zr775   2.390       .  S
O755        H792   0.965       .  S
O756       Zr759   2.399   1_565  S
O756       Zr775   2.401       .  S
Zr757       O782   2.445       .  S
Zr757       O776   2.436       .  S
Zr757       O784   2.418       .  S
Zr757       O772   2.413       .  S
Zr757       O763   2.402   1_565  S
Zr757       O764   2.408   1_565  S
Zr757       O765   2.370   1_455  S
Zr757       O766   2.376   1_455  S
Zr758       O777   2.436       .  S
Zr758       O770   2.435   1_565  S
Zr758       O771   2.489       .  S
Zr758       O764   2.406   1_565  S
Zr758       O765   2.407   1_455  S
Zr759       O761   2.435   1_545  S
Zr759       O783   2.438       .  S
Zr759       O785   2.482       .  S
Zr759       O763   2.395   1_655  S
Zr759       O766   2.411   1_545  S
Zr760       O786   2.436       .  S
Zr760       O787   2.436       .  S
Zr760       O762   2.439       .  S
Zr760       O763   2.394       .  S
Zr760       O764   2.379       .  S
O761        H798   0.990       .  S
O762        H793   0.990       .  S
O762        H807   0.990       .  S
O764        H790   0.963       .  S
O765       Zr775   2.385       .  S
O766       Zr775   2.389       .  S
O766        H791   0.966       .  S
C767       C1749   1.478       .  S
C768       C2149   1.495       .  S
C769       C2738   1.494       .  S
O770        H806   0.990   1_545  S
O771        C773   1.293       .  A
O772        C773   1.281       .  A
C773       C2005   1.498       .  S
O774       Zr775   2.437       .  S
O774        H803   0.990       .  S
Zr775       O778   2.437       .  S
Zr775       O779   2.439       .  S
Zr775       O780   2.430       .  S
O776        C781   1.284   1_455  A
O777        H794   0.990       .  S
O777        H809   0.990       .  S
O778        H795   0.990       .  S
O779        H799   0.990       .  S
O779        H808   0.989       .  S
O780        C781   1.281       .  A
C781       C2117   1.495       .  S
O782        H801   0.991       .  S
O782        H805   0.990       .  S
O783        H797   0.990       .  S
O783        H804   0.990       .  S
O784        C788   1.282   1_565  A
O785        C788   1.292   1_655  A
O786        H796   0.990       .  S
O787        H800   0.990       .  S
C788       C1541   1.506       .  S
C811        C812   1.534       .  S
C811        C817   1.537       .  S
C811        C815   1.523   1_556  S
C811       C1797   1.533       .  S
C812        H819   1.084       .  S
C812        C813   1.371   1_556  D
C813        C814   1.553       .  S
C813       C1650   1.514       .  S
C814        C818   1.534       .  S
C814        C816   1.558       .  S
C814        H820   1.101       .  S
C815        H821   1.084       .  S
C815        C816   1.363       .  D
C816       C1621   1.490       .  S
C817        H822   1.083       .  S
C817        C818   1.355   1_556  D
C818       C1525   1.470       .  S
Zr823       O824   2.443       .  S
Zr823       O825   2.440       .  S
Zr823       O826   2.444       .  S
Zr823       O829   2.408       .  S
Zr823       O831   2.379   1_545  S
Zr823       O832   2.386   1_556  S
Zr823       O833   2.405   1_545  S
Zr823       O834   2.408       .  S
O824        H880   0.990       .  S
O824        H888   0.991       .  S
O825        C845   1.284   1_556  A
O826        C847   1.286   1_545  A
O827       Zr837   2.453       .  S
O827        C846   1.288   1_554  A
O828       Zr836   2.504       .  S
O828        C847   1.298       .  A
O829        C846   1.278       .  A
O830       Zr838   2.387   1_545  S
O830        C845   1.273       .  A
O831       Zr836   2.410       .  S
O831       Zr838   2.396   1_556  S
O832       Zr837   2.386       .  S
O832       Zr838   2.377   1_545  S
O832        H867   0.964       .  S
O833       Zr836   2.402       .  S
O833       Zr853   2.384   1_565  S
O833        H870   0.965       .  S
O834       Zr837   2.405   1_556  S
O834       Zr853   2.388       .  S
Zr835       O860   2.442       .  S
Zr835       O854   2.409       .  S
Zr835       O862   2.433       .  S
Zr835       O850   2.402       .  S
Zr835       O841   2.392   1_565  S
Zr835       O842   2.402       .  S
Zr835       O843   2.386   1_554  S
Zr835       O844   2.378   1_565  S
Zr836       O855   2.434       .  S
Zr836       O848   2.434       .  S
Zr836       O849   2.484   1_556  S
Zr836       O842   2.412   1_556  S
Zr836       O843   2.406       .  S
Zr837       O839   2.435       .  S
Zr837       O861   2.438       .  S
Zr837       O863   2.460       .  S
Zr837       O841   2.401       .  S
Zr837       O844   2.388       .  S
Zr838       O864   2.434   1_565  S
Zr838       O865   2.436       .  S
Zr838       O840   2.438       .  S
Zr838       O841   2.393   1_565  S
Zr838       O842   2.372       .  S
O839        H876   0.990       .  S
O840        H871   0.990       .  S
O840        H885   0.990       .  S
O842        H868   0.964       .  S
O843       Zr853   2.382   1_565  S
O844       Zr853   2.372   1_554  S
O844        H869   0.966       .  S
C845       C1522   1.454       .  S
C846       C1826   1.478       .  S
C847       C2386   1.530       .  S
O848        H884   0.990       .  S
O849        C851   1.294       .  A
O850        C851   1.280       .  A
C851       C2453   1.487       .  S
O852       Zr853   2.435       .  S
O852        H881   0.990       .  S
Zr853       O856   2.436   1_545  S
Zr853       O857   2.437       .  S
Zr853       O858   2.408   1_545  S
O854        C859   1.277       .  A
O855        H872   0.989       .  S
O855        H887   0.989       .  S
O856        H873   0.990       .  S
O857        H877   0.990       .  S
O857        H886   0.989       .  S
O858        C859   1.280   1_556  A
C859       C2466   1.469       .  S
O860        H879   0.989       .  S
O860        H883   0.990       .  S
O861        H875   0.990       .  S
O861        H882   0.990       .  S
O862        C866   1.282   1_565  A
O863        C866   1.290       .  A
O864        H874   0.990       .  S
O865        H878   0.990       .  S
C866       C1877   1.496       .  S
Zr889       O890   2.446       .  S
Zr889       O891   2.412       .  S
Zr889       O892   2.428       .  S
Zr889       O895   2.394       .  S
Zr889       O897   2.375       .  S
Zr889       O898   2.386       .  S
Zr889       O899   2.397   1_545  S
Zr889       O900   2.400       .  S
O890        H946   0.991       .  S
O890        H954   0.991       .  S
O891        C911   1.278       .  A
O892        C913   1.281       .  A
O893       Zr903   2.487       .  S
O893        C912   1.294       .  A
O894       Zr902   2.506       .  S
O894        C913   1.297   1_565  A
O895        C912   1.276       .  A
O896       Zr904   2.412       .  S
O896        C911   1.278       .  A
O897       Zr902   2.401   1_545  S
O897       Zr904   2.388       .  S
O898       Zr903   2.402       .  S
O898       Zr904   2.378       .  S
O898        H933   0.966       .  S
O899       Zr902   2.407       .  S
O899       Zr919   2.383       .  S
O899        H936   0.964       .  S
O900       Zr903   2.401       .  S
O900       Zr919   2.392   1_545  S
Zr901       O926   2.445       .  S
Zr901       O920   2.453       .  S
Zr901       O928   2.453       .  S
Zr901       O916   2.419       .  S
Zr901       O907   2.404   1_565  S
Zr901       O908   2.422   1_565  S
Zr901       O909   2.385       .  S
Zr901       O910   2.386       .  S
Zr902       O921   2.435       .  S
Zr902       O914   2.436   1_565  S
Zr902       O915   2.480       .  S
Zr902       O908   2.417   1_565  S
Zr902       O909   2.412       .  S
Zr903       O905   2.435       .  S
Zr903       O927   2.435       .  S
Zr903       O929   2.485       .  S
Zr903       O907   2.396       .  S
Zr903       O910   2.415   1_545  S
Zr904       O930   2.435       .  S
Zr904       O931   2.437       .  S
Zr904       O906   2.436       .  S
Zr904       O907   2.394       .  S
Zr904       O908   2.377       .  S
O905        H942   0.990       .  S
O906        H937   0.990       .  S
O906        H951   0.990       .  S
O908        H934   0.964       .  S
O909       Zr919   2.378       .  S
O910       Zr919   2.387       .  S
O910        H935   0.966       .  S
C911       C1506   1.464       .  S
C912       C2165   1.484       .  S
C913       C1858   1.508       .  S
O914        H950   0.990   1_545  S
O915        C917   1.294       .  A
O916        C917   1.280       .  A
C917       C2021   1.481       .  S
O918       Zr919   2.437       .  S
O918        H947   0.990       .  S
Zr919       O922   2.435       .  S
Zr919       O923   2.437       .  S
Zr919       O924   2.410       .  S
O920        C925   1.286       .  A
O921        H938   0.990       .  S
O921        H953   0.990       .  S
O922        H939   0.990       .  S
O923        H943   0.990       .  S
O923        H952   0.990       .  S
O924        C925   1.276       .  A
C925       C1493   1.503       .  S
O926        H945   0.991       .  S
O926        H949   0.991       .  S
O927        H941   0.990       .  S
O927        H948   0.990       .  S
O928        C932   1.287   1_565  A
O929        C932   1.294       .  A
O930        H940   0.991       .  S
O931        H944   0.990       .  S
C932       C2402   1.507       .  S
C955        C956   1.526       .  S
C955        C961   1.550       .  S
C955        C959   1.542       .  S
C955       C1509   1.541       .  S
C956        H963   1.087       .  S
C956        C957   1.359       .  D
C957        C958   1.537       .  S
C957       C1909   1.474       .  S
C958        C962   1.528       .  S
C958        C960   1.537       .  S
C958        H964   1.108       .  S
C959        H965   1.081       .  S
C959        C960   1.369       .  D
C960       C1474   1.484       .  S
C961        H966   1.084       .  S
C961        C962   1.366       .  D
C962       C1589   1.481       .  S
Zr967       O968   2.444       .  S
Zr967       O969   2.438       .  S
Zr967       O970   2.428       .  S
Zr967       O973   2.396       .  S
Zr967       O975   2.379       .  S
Zr967       O976   2.387   1_554  S
Zr967       O977   2.406       .  S
Zr967       O978   2.401   1_655  S
O968       H1024   0.990       .  S
O968       H1032   0.991       .  S
O969        C989   1.282   1_554  A
O970        C991   1.280       .  A
O971       Zr981   2.449       .  S
O971        C990   1.288   1_456  A
O972       Zr980   2.478       .  S
O972        C991   1.291       .  A
O973        C990   1.277       .  A
O974       Zr982   2.433       .  S
O974        C989   1.283       .  A
O975       Zr980   2.408       .  S
O975       Zr982   2.390   1_554  S
O976       Zr981   2.398   1_655  S
O976       Zr982   2.377       .  S
O976       H1011   0.966       .  S
O977       Zr980   2.405       .  S
O977       Zr997   2.401   1_655  S
O977       H1014   0.965       .  S
O978       Zr981   2.395   1_554  S
O978       Zr997   2.382       .  S
Zr979      O1004   2.443       .  S
Zr979       O998   2.444       .  S
Zr979      O1006   2.415       .  S
Zr979       O994   2.402       .  S
Zr979       O985   2.401   1_455  S
Zr979       O986   2.406   1_455  S
Zr979       O987   2.379   1_556  S
Zr979       O988   2.375       .  S
Zr980       O999   2.434       .  S
Zr980       O992   2.435       .  S
Zr980       O993   2.476   1_554  S
Zr980       O986   2.402   1_554  S
Zr980       O987   2.408   1_655  S
Zr981       O983   2.434       .  S
Zr981      O1005   2.440   1_455  S
Zr981      O1007   2.465       .  S
Zr981       O985   2.396   1_455  S
Zr981       O988   2.400       .  S
Zr982      O1008   2.438       .  S
Zr982      O1009   2.436       .  S
Zr982       O984   2.437       .  S
Zr982       O985   2.403       .  S
Zr982       O986   2.393       .  S
O983       H1020   0.990       .  S
O984       H1015   0.990       .  S
O984       H1029   0.990       .  S
O986       H1012   0.965       .  S
O987       Zr997   2.384       .  S
O988       Zr997   2.380   1_556  S
O988       H1013   0.966       .  S
C989       C2325   1.477       .  S
C990       C1685   1.468       .  S
C991       C1954   1.494       .  S
O992       H1028   0.990       .  S
O993        C995   1.292       .  A
O994        C995   1.280   1_455  A
C995       C1458   1.496       .  S
O996       Zr997   2.437       .  S
O996       H1025   0.990       .  S
Zr997      O1000   2.435       .  S
Zr997      O1001   2.439       .  S
Zr997      O1002   2.429       .  S
O998       C1003   1.286       .  A
O999       H1016   0.990       .  S
O999       H1031   0.990   1_655  S
O1000      H1017   0.990       .  S
O1001      H1021   0.990       .  S
O1001      H1030   0.989       .  S
O1002      C1003   1.281   1_554  A
C1003      C2261   1.497       .  S
O1004      H1023   0.991       .  S
O1004      H1027   0.990       .  S
O1005      H1019   0.990       .  S
O1005      H1026   0.990       .  S
O1006      C1010   1.279       .  A
O1007      C1010   1.289       .  A
O1008      H1018   0.990       .  S
O1009      H1022   0.990       .  S
C1010      C2229   1.486       .  S
Zr1033     O1034   2.446       .  S
Zr1033     O1035   2.408       .  S
Zr1033     O1036   2.433       .  S
Zr1033     O1039   2.422   1_554  S
Zr1033     O1041   2.378       .  S
Zr1033     O1042   2.391   1_554  S
Zr1033     O1043   2.395       .  S
Zr1033     O1044   2.392   1_554  S
O1034      H1090   0.990       .  S
O1034      H1098   0.990       .  S
O1035      C1055   1.277       .  A
O1036      C1057   1.283       .  A
O1037     Zr1047   2.455       .  S
O1037      C1056   1.288       .  A
O1038     Zr1046   2.458       .  S
O1038      C1057   1.288       .  A
O1039      C1056   1.280       .  A
O1040     Zr1048   2.420   1_554  S
O1040      C1055   1.280       .  A
O1041     Zr1046   2.398       .  S
O1041     Zr1048   2.385   1_554  S
O1042     Zr1047   2.402       .  S
O1042     Zr1048   2.380       .  S
O1042      H1077   0.966       .  S
O1043     Zr1046   2.397       .  S
O1043     Zr1063   2.389   1_554  S
O1043      H1080   0.964       .  S
O1044     Zr1047   2.396       .  S
O1044     Zr1063   2.374       .  S
Zr1045     O1070   2.444       .  S
Zr1045     O1064   2.441       .  S
Zr1045     O1072   2.432       .  S
Zr1045     O1060   2.436       .  S
Zr1045     O1051   2.401       .  S
Zr1045     O1052   2.416   1_556  S
Zr1045     O1053   2.381   1_556  S
Zr1045     O1054   2.383       .  S
Zr1046     O1065   2.436       .  S
Zr1046     O1058   2.435       .  S
Zr1046     O1059   2.446       .  S
Zr1046     O1052   2.412       .  S
Zr1046     O1053   2.406       .  S
Zr1047     O1049   2.434       .  S
Zr1047     O1071   2.440       .  S
Zr1047     O1073   2.460       .  S
Zr1047     O1051   2.393       .  S
Zr1047     O1054   2.398       .  S
Zr1048     O1074   2.436       .  S
Zr1048     O1075   2.437       .  S
Zr1048     O1050   2.438   1_556  S
Zr1048     O1051   2.388       .  S
Zr1048     O1052   2.397   1_556  S
O1049      H1086   0.990       .  S
O1050      H1081   0.990       .  S
O1050      H1095   0.990       .  S
O1052      H1078   0.965       .  S
O1053     Zr1063   2.389   1_554  S
O1054     Zr1063   2.383       .  S
O1054      H1079   0.966       .  S
C1055      C2437   1.470       .  S
C1056      C2277   1.475       .  S
C1057      C1442   1.488       .  S
O1058      H1094   0.990       .  S
O1059      C1061   1.285       .  A
O1060      C1061   1.283   1_556  A
C1061      C2341   1.478       .  S
O1062     Zr1063   2.435   1_554  S
O1062      H1091   0.990       .  S
Zr1063     O1066   2.435   1_556  S
Zr1063     O1067   2.436       .  S
Zr1063     O1068   2.396       .  S
O1064      C1069   1.283       .  A
O1065      H1082   0.990       .  S
O1065      H1097   0.990       .  S
O1066      H1083   0.990       .  S
O1067      H1087   0.990       .  S
O1067      H1096   0.989       .  S
O1068      C1069   1.276       .  A
C1069      C1813   1.465       .  S
O1070      H1089   0.989       .  S
O1070      H1093   0.990       .  S
O1071      H1085   0.990       .  S
O1071      H1092   0.990       .  S
O1072      C1076   1.285       .  A
O1073      C1076   1.288       .  A
O1074      H1084   0.989       .  S
O1075      H1088   0.990       .  S
C1076      C2629   1.498       .  S
Zr1099     O1100   2.444       .  S
Zr1099     O1101   2.455       .  S
Zr1099     O1102   2.423       .  S
Zr1099     O1105   2.398       .  S
Zr1099     O1107   2.369   1_655  S
Zr1099     O1108   2.380       .  S
Zr1099     O1109   2.407       .  S
Zr1099     O1110   2.412       .  S
O1100      H1156   0.991       .  S
O1100      H1164   0.991       .  S
O1101      C1121   1.288       .  A
O1102      C1123   1.281   1_655  A
O1103     Zr1113   2.481       .  S
O1103      C1122   1.293       .  A
O1104     Zr1112   2.478       .  S
O1104      C1123   1.292       .  A
O1105      C1122   1.277       .  A
O1106     Zr1114   2.414       .  S
O1106      C1121   1.279       .  A
O1107     Zr1112   2.404       .  S
O1107     Zr1114   2.392   1_455  S
O1108     Zr1113   2.406       .  S
O1108     Zr1114   2.376       .  S
O1108      H1143   0.966       .  S
O1109     Zr1112   2.396   1_655  S
O1109     Zr1129   2.400       .  S
O1109      H1146   0.964   1_655  S
O1110     Zr1113   2.392       .  S
O1110     Zr1129   2.404       .  S
Zr1111     O1136   2.444       .  S
Zr1111     O1130   2.452       .  S
Zr1111     O1138   2.425       .  S
Zr1111     O1126   2.427       .  S
Zr1111     O1117   2.403   1_455  S
Zr1111     O1118   2.405       .  S
Zr1111     O1119   2.381       .  S
Zr1111     O1120   2.382   1_455  S
Zr1112     O1131   2.436       .  S
Zr1112     O1124   2.434       .  S
Zr1112     O1125   2.449       .  S
Zr1112     O1118   2.412       .  S
Zr1112     O1119   2.412       .  S
Zr1113     O1115   2.435       .  S
Zr1113     O1137   2.437       .  S
Zr1113     O1139   2.472       .  S
Zr1113     O1117   2.403       .  S
Zr1113     O1120   2.404       .  S
Zr1114     O1140   2.435       .  S
Zr1114     O1141   2.437   1_655  S
Zr1114     O1116   2.437   1_655  S
Zr1114     O1117   2.391       .  S
Zr1114     O1118   2.372   1_655  S
O1115      H1152   0.990       .  S
O1116      H1147   0.990       .  S
O1116      H1161   0.990       .  S
O1118      H1144   0.963       .  S
O1119     Zr1129   2.380   1_455  S
O1120     Zr1129   2.373       .  S
O1120      H1145   0.966       .  S
C1121      C1941   1.491       .  S
C1122      C2597   1.484       .  S
C1123      C2101   1.504       .  S
O1124      H1160   0.990       .  S
O1125      C1127   1.286       .  A
O1126      C1127   1.284       .  A
C1127      C1426   1.467       .  S
O1128     Zr1129   2.435       .  S
O1128      H1157   0.990       .  S
Zr1129     O1132   2.435   1_655  S
Zr1129     O1133   2.437       .  S
Zr1129     O1134   2.443   1_655  S
O1130      C1135   1.285       .  A
O1131      H1148   0.990       .  S
O1131      H1163   0.990       .  S
O1132      H1149   0.990       .  S
O1133      H1153   0.990       .  S
O1133      H1162   0.990       .  S
O1134      C1135   1.285       .  A
C1135      C2213   1.497       .  S
O1136      H1155   0.990       .  S
O1136      H1159   0.991       .  S
O1137      H1151   0.990       .  S
O1137      H1158   0.990       .  S
O1138      C1142   1.283   1_455  A
O1139      C1142   1.291       .  A
O1140      H1150   0.990       .  S
O1141      H1154   0.990       .  S
C1142      C1733   1.513       .  S
C1165      C1166   1.527       .  S
C1165      C1171   1.529       .  S
C1165      C1169   1.551       .  S
C1165      C1781   1.533       .  S
C1166      H1173   1.083       .  S
C1166      C1167   1.359       .  D
C1167      C1168   1.545       .  S
C1167      C1429   1.485       .  S
C1168      C1172   1.559       .  S
C1168      C1170   1.556       .  S
C1168      H1174   1.103       .  S
C1169      H1175   1.080       .  S
C1169      C1170   1.366       .  D
C1170      C1573   1.504       .  S
C1171      H1176   1.088       .  S
C1171      C1172   1.357       .  D
C1172      C1410   1.501       .  S
Zr1177     O1178   2.444       .  S
Zr1177     O1179   2.436       .  S
Zr1177     O1180   2.433       .  S
Zr1177     O1183   2.388       .  S
Zr1177     O1185   2.376       .  S
Zr1177     O1186   2.387       .  S
Zr1177     O1187   2.401       .  S
Zr1177     O1188   2.403       .  S
O1178      H1234   0.990       .  S
O1178      H1242   0.991       .  S
O1179      C1199   1.281       .  A
O1180      C1201   1.281       .  A
O1181     Zr1191   2.470       .  S
O1181      C1200   1.292       .  A
O1182     Zr1190   2.486       .  S
O1182      C1201   1.294       .  A
O1183      C1200   1.275       .  A
O1184     Zr1192   2.419       .  S
O1184      C1199   1.282       .  A
O1185     Zr1190   2.406       .  S
O1185     Zr1192   2.383       .  S
O1186     Zr1191   2.407       .  S
O1186     Zr1192   2.373       .  S
O1186      H1221   0.966       .  S
O1187     Zr1190   2.403       .  S
O1187     Zr1207   2.400       .  S
O1187      H1224   0.966       .  S
O1188     Zr1191   2.398       .  S
O1188     Zr1207   2.385       .  S
Zr1189     O1214   2.443       .  S
Zr1189     O1208   2.441       .  S
Zr1189     O1216   2.422       .  S
Zr1189     O1204   2.405       .  S
Zr1189     O1195   2.400       .  S
Zr1189     O1196   2.415       .  S
Zr1189     O1197   2.381       .  S
Zr1189     O1198   2.375       .  S
Zr1190     O1209   2.434       .  S
Zr1190     O1202   2.435       .  S
Zr1190     O1203   2.476       .  S
Zr1190     O1196   2.413       .  S
Zr1190     O1197   2.405       .  S
Zr1191     O1193   2.434       .  S
Zr1191     O1215   2.437       .  S
Zr1191     O1217   2.493       .  S
Zr1191     O1195   2.390       .  S
Zr1191     O1198   2.401       .  S
Zr1192     O1218   2.434       .  S
Zr1192     O1219   2.435       .  S
Zr1192     O1194   2.437       .  S
Zr1192     O1195   2.400       .  S
Zr1192     O1196   2.383       .  S
O1193      H1230   0.990       .  S
O1194      H1225   0.990       .  S
O1194      H1239   0.990       .  S
O1196      H1222   0.963       .  S
O1197     Zr1207   2.381       .  S
O1198     Zr1207   2.385       .  S
O1198      H1223   0.966       .  S
C1199      C1477   1.503       .  S
C1200      C1413   1.471       .  S
C1201      C1394   1.498       .  S
O1202      H1238   0.990       .  S
O1203      C1205   1.292       .  A
O1204      C1205   1.277       .  A
C1205      C2581   1.474       .  S
O1206     Zr1207   2.436       .  S
O1206      H1235   0.991       .  S
Zr1207     O1210   2.435       .  S
Zr1207     O1211   2.437       .  S
Zr1207     O1212   2.422       .  S
O1208      C1213   1.284       .  A
O1209      H1226   0.990       .  S
O1209      H1241   0.990       .  S
O1210      H1227   0.990       .  S
O1211      H1231   0.990       .  S
O1211      H1240   0.990       .  S
O1212      C1213   1.280       .  A
C1213      C1378   1.477       .  S
O1214      H1233   0.989       .  S
O1214      H1237   0.991       .  S
O1215      H1229   0.990       .  S
O1215      H1236   0.990       .  S
O1216      C1220   1.282       .  A
O1217      C1220   1.296       .  A
O1218      H1228   0.990       .  S
O1219      H1232   0.990       .  S
C1220      C2642   1.506       .  S
C1243      C1244   1.529       .  S
C1243      C1249   1.542       .  S
C1243      C1247   1.547       .  S
C1243      C1445   1.560       .  S
C1244      H1251   1.087       .  S
C1244      C1245   1.364       .  D
C1245      C1246   1.567       .  S
C1245      C2050   1.512       .  S
C1246      C1250   1.555       .  S
C1246      C1248   1.571       .  S
C1246      H1252   1.097       .  S
C1247      H1253   1.081       .  S
C1247      C1248   1.388       .  D
C1248      C1397   1.541       .  S
C1249      H1254   1.086       .  S
C1249      C1250   1.352       .  D
C1250      C1554   1.503       .  S
C1255      C1256   1.565       .  S
C1255      C1261   1.526   1_655  S
C1255      C1259   1.528   1_655  S
C1255      C1637   1.549       .  S
C1256      H1263   1.081       .  S
C1256      C1257   1.386       .  D
C1257      C1258   1.549   1_655  S
C1257      C2869   1.529       .  S
C1258      C1262   1.566       .  S
C1258      C1260   1.553       .  S
C1258      H1264   1.096       .  S
C1259      H1265   1.087       .  S
C1259      C1260   1.360       .  D
C1260      C1461   1.499       .  S
C1261      H1266   1.087       .  S
C1261      C1262   1.356       .  D
C1262      C1365   1.498       .  S
Zr1267     O1268   2.439       .  S
Zr1267     O1269   2.418       .  S
Zr1267     O1270   2.417       .  S
Zr1267     O1273   2.404       .  S
Zr1267     O1275   2.376       .  S
Zr1267     O1276   2.376       .  S
Zr1267     O1277   2.395       .  S
Zr1267     O1278   2.394       .  S
O1268      H1324   0.990       .  S
O1268      H1332   0.990       .  S
O1269      C1289   1.280       .  A
O1270      C1291   1.283       .  A
O1271     Zr1281   2.491       .  S
O1271      C1290   1.295       .  A
O1272     Zr1280   2.470       .  S
O1272      C1291   1.291       .  A
O1273      C1290   1.279       .  A
O1274     Zr1282   2.398       .  S
O1274      C1289   1.279       .  A
O1275     Zr1280   2.397       .  S
O1275     Zr1282   2.382       .  S
O1276     Zr1281   2.384       .  S
O1276     Zr1282   2.369       .  S
O1276      H1311   0.966       .  S
O1277     Zr1280   2.401       .  S
O1277     Zr1297   2.393       .  S
O1277      H1314   0.966       .  S
O1278     Zr1281   2.389       .  S
O1278     Zr1297   2.393       .  S
Zr1279     O1304   2.446       .  S
Zr1279     O1298   2.431       .  S
Zr1279     O1306   2.405       .  S
Zr1279     O1294   2.441       .  S
Zr1279     O1285   2.398       .  S
Zr1279     O1286   2.402       .  S
Zr1279     O1287   2.376       .  S
Zr1279     O1288   2.389       .  S
Zr1280     O1299   2.435       .  S
Zr1280     O1292   2.433       .  S
Zr1280     O1293   2.468       .  S
Zr1280     O1286   2.404       .  S
Zr1280     O1287   2.408       .  S
Zr1281     O1283   2.435       .  S
Zr1281     O1305   2.438       .  S
Zr1281     O1307   2.454       .  S
Zr1281     O1285   2.399       .  S
Zr1281     O1288   2.408       .  S
Zr1282     O1308   2.436       .  S
Zr1282     O1309   2.437       .  S
Zr1282     O1284   2.437       .  S
Zr1282     O1285   2.379       .  S
Zr1282     O1286   2.375       .  S
O1283      H1320   0.990       .  S
O1284      H1315   0.990       .  S
O1284      H1329   0.990       .  S
O1286      H1312   0.964       .  S
O1287     Zr1297   2.394       .  S
O1288     Zr1297   2.378       .  S
O1288      H1313   0.966       .  S
C1289      C2245   1.474       .  S
C1290      C1362   1.495       .  S
C1291      C2181   1.494       .  S
O1292      H1328   0.990       .  S
O1293      C1295   1.289       .  A
O1294      C1295   1.284       .  A
C1295      C1349   1.489       .  S
O1296     Zr1297   2.437       .  S
O1296      H1325   0.990       .  S
Zr1297     O1300   2.433       .  S
Zr1297     O1301   2.440       .  S
Zr1297     O1302   2.416       .  S
O1298      C1303   1.279       .  A
O1299      H1316   0.990       .  S
O1299      H1331   0.990       .  S
O1300      H1317   0.990       .  S
O1301      H1321   0.990       .  S
O1301      H1330   0.990       .  S
O1302      C1303   1.282       .  A
C1303      C1989   1.503       .  S
O1304      H1323   0.991       .  S
O1304      H1327   0.990       .  S
O1305      H1319   0.990       .  S
O1305      H1326   0.990       .  S
O1306      C1310   1.280       .  A
O1307      C1310   1.288       .  A
O1308      H1318   0.990       .  S
O1309      H1322   0.990       .  S
C1310      C2357   1.488       .  S
C1333      C1334   1.540       .  S
C1333      C1339   1.532       .  S
C1333      C1337   1.539       .  S
C1333      C1490   1.544       .  S
C1334      H1341   1.087       .  S
C1334      C1335   1.359       .  D
C1335      C1336   1.557       .  S
C1335      C2821   1.511       .  S
C1336      C1340   1.552       .  S
C1336      C1338   1.553       .  S
C1336      H1342   1.106       .  S
C1337      H1343   1.080       .  S
C1337      C1338   1.373       .  D
C1338      C1381   1.507       .  S
C1339      H1344   1.079       .  S
C1339      C1340   1.362       .  D
C1340      C1346   1.491       .  S
C1345      C1346   1.409       .  A
C1345      C1350   1.414       .  A
C1345      H1352   1.082       .  S
C1346      C1347   1.412       .  A
C1347      C1354   1.516       .  S
C1347      C1348   1.410       .  A
C1348      C1349   1.408       .  A
C1348      H1353   1.084       .  S
C1349      C1350   1.414       .  A
C1350      C1351   1.515       .  S
C1351      F1355   1.385       .  S
C1351      F1356   1.383       .  S
C1351      F1357   1.383       .  S
C1354      F1358   1.383       .  S
C1354      F1359   1.383       .  S
C1354      F1360   1.384       .  S
C1361      C1362   1.405       .  A
C1361      C1366   1.417       .  A
C1361      H1368   1.084       .  S
C1362      C1363   1.421       .  A
C1363      C1370   1.519       .  S
C1363      C1364   1.404       .  A
C1364      C1365   1.396       .  A
C1364      H1369   1.074       .  S
C1365      C1366   1.429       .  A
C1366      C1367   1.520       .  S
C1367      F1371   1.384       .  S
C1367      F1372   1.380       .  S
C1367      F1373   1.383       .  S
C1370      F1374   1.384       .  S
C1370      F1375   1.379       .  S
C1370      F1376   1.385       .  S
C1377      C1378   1.398       .  A
C1377      C1382   1.411       .  A
C1377      H1384   1.084       .  S
C1378      C1379   1.409       .  A
C1379      C1386   1.518       .  S
C1379      C1380   1.407       .  A
C1380      C1381   1.412       .  A
C1380      H1385   1.080       .  S
C1381      C1382   1.433       .  A
C1382      C1383   1.524       .  S
C1383      F1387   1.386       .  S
C1383      F1388   1.379       .  S
C1383      F1389   1.382       .  S
C1386      F1390   1.383       .  S
C1386      F1391   1.382       .  S
C1386      F1392   1.385       .  S
C1393      C1394   1.399       .  A
C1393      C1398   1.417       .  A
C1393      H1400   1.083       .  S
C1394      C1395   1.410       .  A
C1395      C1402   1.516       .  S
C1395      C1396   1.419       .  A
C1396      C1397   1.423       .  A
C1396      H1401   1.080       .  S
C1397      C1398   1.437       .  A
C1398      C1399   1.518       .  S
C1399      F1403   1.385       .  S
C1399      F1404   1.382       .  S
C1399      F1405   1.374       .  S
C1402      F1406   1.383       .  S
C1402      F1407   1.383       .  S
C1402      F1408   1.385       .  S
C1409      C1410   1.412       .  A
C1409      C1414   1.409       .  A
C1409      H1416   1.082       .  S
C1410      C1411   1.420       .  A
C1411      C1418   1.508       .  S
C1411      C1412   1.406       .  A
C1412      C1413   1.399       .  A
C1412      H1417   1.084       .  S
C1413      C1414   1.409       .  A
C1414      C1415   1.516       .  S
C1415      F1419   1.384       .  S
C1415      F1420   1.383       .  S
C1415      F1421   1.384       .  S
C1418      F1422   1.376       .  S
C1418      F1423   1.380       .  S
C1418      F1424   1.385       .  S
C1425      C1426   1.403       .  A
C1425      C1430   1.409       .  A
C1425      H1432   1.083       .  S
C1426      C1427   1.403       .  A
C1427      C1434   1.512       .  S
C1427      C1428   1.399       .  A
C1428      C1429   1.403       .  A
C1428      H1433   1.074       .  S
C1429      C1430   1.416       .  A
C1430      C1431   1.513       .  S
C1431      F1435   1.384       .  S
C1431      F1436   1.381       .  S
C1431      F1437   1.382       .  S
C1434      F1438   1.378       .  S
C1434      F1439   1.383       .  S
C1434      F1440   1.384       .  S
C1441      C1442   1.403       .  A
C1441      C1446   1.420       .  A
C1441      H1448   1.084       .  S
C1442      C1443   1.411       .  A
C1443      C1450   1.521       .  S
C1443      C1444   1.399       .  A
C1444      C1445   1.414       .  A
C1444      H1449   1.079       .  S
C1445      C1446   1.437       .  A
C1446      C1447   1.519       .  S
C1447      F1451   1.386       .  S
C1447      F1452   1.382       .  S
C1447      F1453   1.374       .  S
C1450      F1454   1.383       .  S
C1450      F1455   1.379       .  S
C1450      F1456   1.385       .  S
C1457      C1458   1.407   1_455  A
C1457      C1462   1.406       .  A
C1457      H1464   1.083       .  S
C1458      C1459   1.419       .  A
C1459      C1466   1.517       .  S
C1459      C1460   1.415       .  A
C1460      C1461   1.410   1_655  A
C1460      H1465   1.083       .  S
C1461      C1462   1.413       .  A
C1462      C1463   1.510       .  S
C1463      F1467   1.380       .  S
C1463      F1468   1.382       .  S
C1463      F1469   1.379       .  S
C1466      F1470   1.383   1_556  S
C1466      F1471   1.383       .  S
C1466      F1472   1.385       .  S
C1473      C1474   1.401       .  A
C1473      C1478   1.410       .  A
C1473      H1480   1.082       .  S
C1474      C1475   1.411       .  A
C1475      C1482   1.518       .  S
C1475      C1476   1.404       .  A
C1476      C1477   1.412       .  A
C1476      H1481   1.082       .  S
C1477      C1478   1.429       .  A
C1478      C1479   1.522       .  S
C1479      F1483   1.386       .  S
C1479      F1484   1.383       .  S
C1479      F1485   1.383       .  S
C1482      F1486   1.385       .  S
C1482      F1487   1.382       .  S
C1482      F1488   1.378       .  S
C1489      C1490   1.405       .  A
C1489      C1494   1.404       .  A
C1489      H1496   1.082       .  S
C1490      C1491   1.423       .  A
C1491      C1498   1.519       .  S
C1491      C1492   1.410       .  A
C1492      C1493   1.411       .  A
C1492      H1497   1.084       .  S
C1493      C1494   1.428       .  A
C1494      C1495   1.522       .  S
C1495      F1499   1.385       .  S
C1495      F1500   1.382       .  S
C1495      F1501   1.382       .  S
C1498      F1502   1.383       .  S
C1498      F1503   1.383       .  S
C1498      F1504   1.385       .  S
C1505      C1506   1.394       .  A
C1505      C1510   1.405       .  A
C1505      H1512   1.084       .  S
C1506      C1507   1.404       .  A
C1507      C1514   1.520       .  S
C1507      C1508   1.401       .  A
C1508      C1509   1.419       .  A
C1508      H1513   1.075       .  S
C1509      C1510   1.436       .  A
C1510      C1511   1.525       .  S
C1511      F1515   1.386       .  S
C1511      F1516   1.379       .  S
C1511      F1517   1.379       .  S
C1514      F1518   1.381       .  S
C1514      F1519   1.384       .  S
C1514      F1520   1.384       .  S
C1521      C1522   1.391       .  A
C1521      C1526   1.397       .  A
C1521      H1528   1.084       .  S
C1522      C1523   1.414       .  A
C1523      C1530   1.518       .  S
C1523      C1524   1.403       .  A
C1524      C1525   1.401       .  A
C1524      H1529   1.083       .  S
C1525      C1526   1.417       .  A
C1526      C1527   1.511       .  S
C1527      F1531   1.381   1_554  S
C1527      F1532   1.380       .  S
C1527      F1533   1.384   1_554  S
C1530      F1534   1.381       .  S
C1530      F1535   1.383       .  S
C1530      F1536   1.385       .  S
C1537      C1538   1.421       .  A
C1537      C1542   1.423       .  A
C1537      H1544   1.074       .  S
C1538      C1539   1.440       .  A
C1539      C1546   1.533       .  S
C1539      C1540   1.405       .  A
C1540      C1541   1.401       .  A
C1540      H1545   1.086       .  S
C1541      C1542   1.415       .  A
C1542      C1543   1.516   1_455  S
C1543      F1547   1.384       .  S
C1543      F1548   1.383       .  S
C1543      F1549   1.383   1_545  S
C1546      F1550   1.385       .  S
C1546      F1551   1.372       .  S
C1546      F1552   1.384   1_545  S
C1553      C1554   1.402       .  A
C1553      C1558   1.417       .  A
C1553      H1560   1.083       .  S
C1554      C1555   1.425       .  A
C1555      C1562   1.517       .  S
C1555      C1556   1.415       .  A
C1556      C1557   1.404       .  A
C1556      H1561   1.084       .  S
C1557      C1558   1.429       .  A
C1558      C1559   1.522       .  S
C1559      F1563   1.385       .  S
C1559      F1564   1.384       .  S
C1559      F1565   1.381       .  S
C1562      F1566   1.383       .  S
C1562      F1567   1.381       .  S
C1562      F1568   1.384       .  S
C1569      C1570   1.412       .  A
C1569      C1574   1.404       .  A
C1569      H1576   1.076       .  S
C1570      C1571   1.417       .  A
C1571      C1578   1.517       .  S
C1571      C1572   1.418       .  A
C1572      C1573   1.415       .  A
C1572      H1577   1.081       .  S
C1573      C1574   1.413       .  A
C1574      C1575   1.520       .  S
C1575      F1579   1.379       .  S
C1575      F1580   1.379       .  S
C1575      F1581   1.378       .  S
C1578      F1582   1.383       .  S
C1578      F1583   1.383       .  S
C1578      F1584   1.385       .  S
C1585      C1586   1.402       .  A
C1585      C1590   1.405       .  A
C1585      H1592   1.083       .  S
C1586      C1587   1.409       .  A
C1587      C1594   1.510       .  S
C1587      C1588   1.400       .  A
C1588      C1589   1.403       .  A
C1588      H1593   1.084       .  S
C1589      C1590   1.418       .  A
C1590      C1591   1.517       .  S
C1591      F1595   1.385       .  S
C1591      F1596   1.377       .  S
C1591      F1597   1.379       .  S
C1594      F1598   1.384       .  S
C1594      F1599   1.382       .  S
C1594      F1600   1.384       .  S
C1601      C1602   1.409       .  A
C1601      C1606   1.421       .  A
C1601      H1608   1.084       .  S
C1602      C1603   1.424       .  A
C1603      C1610   1.519       .  S
C1603      C1604   1.414       .  A
C1604      C1605   1.402       .  A
C1604      H1609   1.084       .  S
C1605      C1606   1.424       .  A
C1606      C1607   1.517       .  S
C1607      F1611   1.384       .  S
C1607      F1612   1.382       .  S
C1607      F1613   1.383       .  S
C1610      F1614   1.379       .  S
C1610      F1615   1.384       .  S
C1610      F1616   1.384       .  S
C1617      C1618   1.394       .  A
C1617      C1622   1.404       .  A
C1617      H1624   1.084       .  S
C1618      C1619   1.416       .  A
C1619      C1626   1.517       .  S
C1619      C1620   1.409       .  A
C1620      C1621   1.404       .  A
C1620      H1625   1.083       .  S
C1621      C1622   1.426       .  A
C1622      C1623   1.519       .  S
C1623      F1627   1.385       .  S
C1623      F1628   1.382       .  S
C1623      F1629   1.379       .  S
C1626      F1630   1.382       .  S
C1626      F1631   1.383       .  S
C1626      F1632   1.385       .  S
C1633      C1634   1.395   1_455  A
C1633      C1638   1.412       .  A
C1633      H1640   1.085   1_556  S
C1634      C1635   1.416       .  A
C1635      C1642   1.516       .  S
C1635      C1636   1.405       .  A
C1636      C1637   1.411       .  A
C1636      H1641   1.077       .  S
C1637      C1638   1.444   1_655  A
C1638      C1639   1.528       .  S
C1639      F1643   1.384   1_556  S
C1639      F1644   1.383       .  S
C1639      F1645   1.375       .  S
C1642      F1646   1.383       .  S
C1642      F1647   1.380   1_556  S
C1642      F1648   1.384       .  S
C1649      C1650   1.413   1_556  A
C1649      C1654   1.399       .  A
C1649      H1656   1.078       .  S
C1650      C1651   1.424       .  A
C1651      C1658   1.518       .  S
C1651      C1652   1.414       .  A
C1652      C1653   1.410       .  A
C1652      H1657   1.083       .  S
C1653      C1654   1.418   1_554  A
C1654      C1655   1.523       .  S
C1655      F1659   1.385       .  S
C1655      F1660   1.383       .  S
C1655      F1661   1.382       .  S
C1658      F1662   1.381       .  S
C1658      F1663   1.382       .  S
C1658      F1664   1.385       .  S
C1665      C1666   1.394   1_565  A
C1665      C1670   1.420   1_565  A
C1665      H1672   1.083       .  S
C1666      C1667   1.408       .  A
C1667      C1674   1.518       .  S
C1667      C1668   1.411       .  A
C1668      C1669   1.419       .  A
C1668      H1673   1.077       .  S
C1669      C1670   1.450       .  A
C1670      C1671   1.522   1_545  S
C1671      F1675   1.386       .  S
C1671      F1676   1.377       .  S
C1671      F1677   1.383   1_565  S
C1674      F1678   1.383   1_445  S
C1674      F1679   1.382       .  S
C1674      F1680   1.384   1_455  S
C1681      C1682   1.398   1_655  A
C1681      C1686   1.400       .  A
C1681      H1688   1.083       .  S
C1682      C1683   1.417       .  A
C1683      C1690   1.518       .  S
C1683      C1684   1.404       .  A
C1684      C1685   1.402   1_455  A
C1684      H1689   1.085       .  S
C1685      C1686   1.421       .  A
C1686      C1687   1.523       .  S
C1687      F1691   1.384       .  S
C1687      F1692   1.382       .  S
C1687      F1693   1.383       .  S
C1690      F1694   1.383       .  S
C1690      F1695   1.382       .  S
C1690      F1696   1.384       .  S
C1697      C1698   1.402       .  A
C1697      C1702   1.405       .  A
C1697      H1704   1.085       .  S
C1698      C1699   1.420       .  A
C1699      C1706   1.518       .  S
C1699      C1700   1.406       .  A
C1700      C1701   1.400       .  A
C1700      H1705   1.083       .  S
C1701      C1702   1.422       .  A
C1702      C1703   1.519       .  S
C1703      F1707   1.384       .  S
C1703      F1708   1.384       .  S
C1703      F1709   1.381       .  S
C1706      F1710   1.383       .  S
C1706      F1711   1.381       .  S
C1706      F1712   1.385       .  S
C1713      C1714   1.395   1_655  A
C1713      C1718   1.402       .  A
C1713      H1720   1.085   1_554  S
C1714      C1715   1.411       .  A
C1715      C1722   1.516       .  S
C1715      C1716   1.396       .  A
C1716      C1717   1.409       .  A
C1716      H1721   1.081       .  S
C1717      C1718   1.431   1_455  A
C1718      C1719   1.519       .  S
C1719      F1723   1.384   1_554  S
C1719      F1724   1.375       .  S
C1719      F1725   1.382       .  S
C1722      F1726   1.383       .  S
C1722      F1727   1.383       .  S
C1722      F1728   1.384       .  S
C1729      C1730   1.409       .  A
C1729      C1734   1.417       .  A
C1729      H1736   1.082       .  S
C1730      C1731   1.420   1_655  A
C1731      C1738   1.522       .  S
C1731      C1732   1.410       .  A
C1732      C1733   1.413   1_455  A
C1732      H1737   1.081       .  S
C1733      C1734   1.424       .  A
C1734      C1735   1.518       .  S
C1735      F1739   1.385       .  S
C1735      F1740   1.383       .  S
C1735      F1741   1.383       .  S
C1738      F1742   1.377       .  S
C1738      F1743   1.378       .  S
C1738      F1744   1.385       .  S
C1745      C1746   1.411       .  A
C1745      C1750   1.406       .  A
C1745      H1752   1.076       .  S
C1746      C1747   1.446       .  A
C1747      C1754   1.539       .  S
C1747      C1748   1.408       .  A
C1748      C1749   1.394       .  A
C1748      H1753   1.082       .  S
C1749      C1750   1.415       .  A
C1750      C1751   1.520       .  S
C1751      F1755   1.384       .  S
C1751      F1756   1.379       .  S
C1751      F1757   1.383       .  S
C1754      F1758   1.376       .  S
C1754      F1759   1.384       .  S
C1754      F1760   1.380       .  S
C1761      C1762   1.400       .  A
C1761      C1766   1.411       .  A
C1761      H1768   1.084       .  S
C1762      C1763   1.421       .  A
C1763      C1770   1.517       .  S
C1763      C1764   1.412       .  A
C1764      C1765   1.402       .  A
C1764      H1769   1.080       .  S
C1765      C1766   1.429       .  A
C1766      C1767   1.524       .  S
C1767      F1771   1.384       .  S
C1767      F1772   1.379       .  S
C1767      F1773   1.383       .  S
C1770      F1774   1.378       .  S
C1770      F1775   1.382       .  S
C1770      F1776   1.385       .  S
C1777      C1778   1.394       .  A
C1777      C1782   1.403       .  A
C1777      H1784   1.084       .  S
C1778      C1779   1.406       .  A
C1779      C1786   1.519       .  S
C1779      C1780   1.399       .  A
C1780      C1781   1.410       .  A
C1780      H1785   1.072       .  S
C1781      C1782   1.437       .  A
C1782      C1783   1.533       .  S
C1783      F1787   1.385       .  S
C1783      F1788   1.381       .  S
C1783      F1789   1.378       .  S
C1786      F1790   1.383       .  S
C1786      F1791   1.381       .  S
C1786      F1792   1.384       .  S
C1793      C1794   1.399       .  A
C1793      C1798   1.393       .  A
C1793      H1800   1.085       .  S
C1794      C1795   1.409       .  A
C1795      C1802   1.519       .  S
C1795      C1796   1.406       .  A
C1796      C1797   1.418       .  A
C1796      H1801   1.077       .  S
C1797      C1798   1.428       .  A
C1798      C1799   1.524       .  S
C1799      F1803   1.384       .  S
C1799      F1804   1.371       .  S
C1799      F1805   1.384       .  S
C1802      F1806   1.382       .  S
C1802      F1807   1.382       .  S
C1802      F1808   1.383       .  S
C1809      C1810   1.409       .  A
C1809      C1814   1.403       .  A
C1809      H1816   1.082       .  S
C1810      C1811   1.433       .  A
C1811      C1818   1.526       .  S
C1811      C1812   1.403       .  A
C1812      C1813   1.395       .  A
C1812      H1817   1.086       .  S
C1813      C1814   1.409       .  A
C1814      C1815   1.518       .  S
C1815      F1819   1.385       .  S
C1815      F1820   1.383       .  S
C1815      F1821   1.381       .  S
C1818      F1822   1.385       .  S
C1818      F1823   1.376       .  S
C1818      F1824   1.383   1_556  S
C1825      C1826   1.405       .  A
C1825      C1830   1.404       .  A
C1825      H1832   1.084       .  S
C1826      C1827   1.411       .  A
C1827      C1834   1.517       .  S
C1827      C1828   1.406       .  A
C1828      C1829   1.415       .  A
C1828      H1833   1.082       .  S
C1829      C1830   1.421       .  A
C1830      C1831   1.519       .  S
C1831      F1835   1.382       .  S
C1831      F1836   1.382       .  S
C1831      F1837   1.385       .  S
C1834      F1838   1.383       .  S
C1834      F1839   1.382   1_556  S
C1834      F1840   1.384       .  S
C1841      C1842   1.411       .  A
C1841      C1846   1.413       .  A
C1841      H1848   1.083       .  S
C1842      C1843   1.419       .  A
C1843      C1850   1.517       .  S
C1843      C1844   1.417       .  A
C1844      C1845   1.407       .  A
C1844      H1849   1.083       .  S
C1845      C1846   1.412       .  A
C1846      C1847   1.517       .  S
C1847      F1851   1.384       .  S
C1847      F1852   1.383       .  S
C1847      F1853   1.382       .  S
C1850      F1854   1.383       .  S
C1850      F1855   1.382       .  S
C1850      F1856   1.385       .  S
C1857      C1858   1.403   1_565  A
C1857      C1862   1.415   1_565  A
C1857      H1864   1.085       .  S
C1858      C1859   1.412       .  A
C1859      C1866   1.516       .  S
C1859      C1860   1.423       .  A
C1860      C1861   1.424       .  A
C1860      H1865   1.074       .  S
C1861      C1862   1.441       .  A
C1862      C1863   1.529   1_545  S
C1863      F1867   1.383       .  S
C1863      F1868   1.385   1_565  S
C1863      F1869   1.375   1_565  S
C1866      F1870   1.383       .  S
C1866      F1871   1.383   1_545  S
C1866      F1872   1.384       .  S
C1873      C1874   1.407   1_565  A
C1873      C1878   1.410       .  A
C1873      H1880   1.081       .  S
C1874      C1875   1.427       .  A
C1875      C1882   1.521       .  S
C1875      C1876   1.413       .  A
C1876      C1877   1.404       .  A
C1876      H1881   1.084       .  S
C1877      C1878   1.421   1_545  A
C1878      C1879   1.520       .  S
C1879      F1883   1.385       .  S
C1879      F1884   1.384       .  S
C1879      F1885   1.380       .  S
C1882      F1886   1.383       .  S
C1882      F1887   1.382       .  S
C1882      F1888   1.385       .  S
C1889      C1890   1.413       .  A
C1889      C1894   1.411       .  A
C1889      H1896   1.083       .  S
C1890      C1891   1.418       .  A
C1891      C1898   1.514       .  S
C1891      C1892   1.418       .  A
C1892      C1893   1.409       .  A
C1892      H1897   1.082       .  S
C1893      C1894   1.414       .  A
C1894      C1895   1.518       .  S
C1895      F1899   1.384       .  S
C1895      F1900   1.383       .  S
C1895      F1901   1.380       .  S
C1898      F1902   1.383       .  S
C1898      F1903   1.382       .  S
C1898      F1904   1.385       .  S
C1905      C1906   1.399       .  A
C1905      C1910   1.402       .  A
C1905      H1912   1.085       .  S
C1906      C1907   1.416       .  A
C1907      C1914   1.520       .  S
C1907      C1908   1.402       .  A
C1908      C1909   1.401       .  A
C1908      H1913   1.082       .  S
C1909      C1910   1.423       .  A
C1910      C1911   1.522       .  S
C1911      F1915   1.383       .  S
C1911      F1916   1.384       .  S
C1911      F1917   1.378       .  S
C1914      F1918   1.381       .  S
C1914      F1919   1.384       .  S
C1914      F1920   1.385       .  S
C1921      C1922   1.403       .  A
C1921      C1926   1.406       .  A
C1921      H1928   1.084       .  S
C1922      C1923   1.414       .  A
C1923      C1930   1.517       .  S
C1923      C1924   1.405       .  A
C1924      C1925   1.405       .  A
C1924      H1929   1.083       .  S
C1925      C1926   1.421       .  A
C1926      C1927   1.518       .  S
C1927      F1931   1.384       .  S
C1927      F1932   1.380       .  S
C1927      F1933   1.379       .  S
C1930      F1934   1.381       .  S
C1930      F1935   1.384       .  S
C1930      F1936   1.384       .  S
C1937      C1938   1.413       .  A
C1937      C1942   1.411       .  A
C1937      H1944   1.076       .  S
C1938      C1939   1.443       .  A
C1939      C1946   1.533       .  S
C1939      C1940   1.409       .  A
C1940      C1941   1.396       .  A
C1940      H1945   1.083       .  S
C1941      C1942   1.417       .  A
C1942      C1943   1.519       .  S
C1943      F1947   1.385   1_655  S
C1943      F1948   1.381       .  S
C1943      F1949   1.383   1_655  S
C1946      F1950   1.386       .  S
C1946      F1951   1.378       .  S
C1946      F1952   1.380       .  S
C1953      C1954   1.405       .  A
C1953      C1958   1.415       .  A
C1953      H1960   1.083       .  S
C1954      C1955   1.411       .  A
C1955      C1962   1.517       .  S
C1955      C1956   1.415       .  A
C1956      C1957   1.416       .  A
C1956      H1961   1.081       .  S
C1957      C1958   1.428       .  A
C1958      C1959   1.525       .  S
C1959      F1963   1.384       .  S
C1959      F1964   1.379       .  S
C1959      F1965   1.382       .  S
C1962      F1966   1.383       .  S
C1962      F1967   1.383       .  S
C1962      F1968   1.385       .  S
C1969      C1970   1.408       .  A
C1969      C1974   1.416       .  A
C1969      H1976   1.083       .  S
C1970      C1971   1.422       .  A
C1971      C1978   1.513       .  S
C1971      C1972   1.416       .  A
C1972      C1973   1.410       .  A
C1972      H1977   1.082       .  S
C1973      C1974   1.423       .  A
C1974      C1975   1.515       .  S
C1975      F1979   1.385       .  S
C1975      F1980   1.381       .  S
C1975      F1981   1.383       .  S
C1978      F1982   1.373       .  S
C1978      F1983   1.381       .  S
C1978      F1984   1.385       .  S
C1985      C1986   1.398       .  A
C1985      C1990   1.408       .  A
C1985      H1992   1.083       .  S
C1986      C1987   1.417       .  A
C1987      C1994   1.524       .  S
C1987      C1988   1.405       .  A
C1988      C1989   1.412       .  A
C1988      H1993   1.082       .  S
C1989      C1990   1.430       .  A
C1990      C1991   1.522       .  S
C1991      F1995   1.385       .  S
C1991      F1996   1.384       .  S
C1991      F1997   1.383       .  S
C1994      F1998   1.381       .  S
C1994      F1999   1.380       .  S
C1994      F2000   1.385       .  S
C2001      C2002   1.413       .  A
C2001      C2006   1.422       .  A
C2001      H2008   1.082       .  S
C2002      C2003   1.420       .  A
C2003      C2010   1.522       .  S
C2003      C2004   1.400       .  A
C2004      C2005   1.407       .  A
C2004      H2009   1.085       .  S
C2005      C2006   1.416       .  A
C2006      C2007   1.515       .  S
C2007      F2011   1.384       .  S
C2007      F2012   1.384       .  S
C2007      F2013   1.383       .  S
C2010      F2014   1.378       .  S
C2010      F2015   1.384       .  S
C2010      F2016   1.384       .  S
C2017      C2018   1.416       .  A
C2017      C2022   1.411       .  A
C2017      H2024   1.082       .  S
C2018      C2019   1.420       .  A
C2019      C2026   1.515       .  S
C2019      C2020   1.412       .  A
C2020      C2021   1.404       .  A
C2020      H2025   1.083       .  S
C2021      C2022   1.408       .  A
C2022      C2023   1.517       .  S
C2023      F2027   1.384       .  S
C2023      F2028   1.383       .  S
C2023      F2029   1.383       .  S
C2026      F2030   1.376       .  S
C2026      F2031   1.385       .  S
C2026      F2032   1.380       .  S
C2033      C2034   1.403       .  A
C2033      C2038   1.403       .  A
C2033      H2040   1.084       .  S
C2034      C2035   1.415       .  A
C2035      C2042   1.522       .  S
C2035      C2036   1.406       .  A
C2036      C2037   1.414       .  A
C2036      H2041   1.076       .  S
C2037      C2038   1.434       .  A
C2038      C2039   1.532       .  S
C2039      F2043   1.383       .  S
C2039      F2044   1.377       .  S
C2039      F2045   1.385       .  S
C2042      F2046   1.383       .  S
C2042      F2047   1.384       .  S
C2042      F2048   1.385       .  S
C2049      C2050   1.409       .  A
C2049      C2054   1.425       .  A
C2049      H2056   1.082       .  S
C2050      C2051   1.427       .  A
C2051      C2058   1.518       .  S
C2051      C2052   1.407       .  A
C2052      C2053   1.403       .  A
C2052      H2057   1.085       .  S
C2053      C2054   1.422       .  A
C2054      C2055   1.514       .  S
C2055      F2059   1.384       .  S
C2055      F2060   1.383       .  S
C2055      F2061   1.383       .  S
C2058      F2062   1.384       .  S
C2058      F2063   1.377       .  S
C2058      F2064   1.384       .  S
C2065      C2066   1.401       .  A
C2065      C2070   1.409       .  A
C2065      H2072   1.083       .  S
C2066      C2067   1.422       .  A
C2067      C2074   1.515       .  S
C2067      C2068   1.422       .  A
C2068      C2069   1.407       .  A
C2068      H2073   1.082       .  S
C2069      C2070   1.432       .  A
C2070      C2071   1.528       .  S
C2071      F2075   1.385       .  S
C2071      F2076   1.376       .  S
C2071      F2077   1.378       .  S
C2074      F2078   1.382       .  S
C2074      F2079   1.383       .  S
C2074      F2080   1.385       .  S
C2081      C2082   1.396       .  A
C2081      C2086   1.403       .  A
C2081      H2088   1.085       .  S
C2082      C2083   1.418       .  A
C2083      C2090   1.511       .  S
C2083      C2084   1.408       .  A
C2084      C2085   1.401       .  A
C2084      H2089   1.083       .  S
C2085      C2086   1.421       .  A
C2086      C2087   1.515       .  S
C2087      F2091   1.384       .  S
C2087      F2092   1.380       .  S
C2087      F2093   1.382       .  S
C2090      F2094   1.382       .  S
C2090      F2095   1.381       .  S
C2090      F2096   1.385       .  S
C2097      C2098   1.409   1_455  A
C2097      C2102   1.415       .  A
C2097      H2104   1.081       .  S
C2098      C2099   1.423       .  A
C2099      C2106   1.517       .  S
C2099      C2100   1.410       .  A
C2100      C2101   1.409   1_655  A
C2100      H2105   1.085       .  S
C2101      C2102   1.420       .  A
C2102      C2103   1.517       .  S
C2103      F2107   1.384       .  S
C2103      F2108   1.383       .  S
C2103      F2109   1.382       .  S
C2106      F2110   1.383       .  S
C2106      F2111   1.374       .  S
C2106      F2112   1.384       .  S
C2113      C2114   1.415   1_655  A
C2113      C2118   1.415       .  A
C2113      H2120   1.076       .  S
C2114      C2115   1.442       .  A
C2115      C2122   1.534       .  S
C2115      C2116   1.406       .  A
C2116      C2117   1.397   1_455  A
C2116      H2121   1.082       .  S
C2117      C2118   1.417       .  A
C2118      C2119   1.519       .  S
C2119      F2123   1.385       .  S
C2119      F2124   1.382       .  S
C2119      F2125   1.384       .  S
C2122      F2126   1.385       .  S
C2122      F2127   1.379       .  S
C2122      F2128   1.381       .  S
C2129      C2130   1.422       .  A
C2129      C2134   1.404       .  A
C2129      H2136   1.082       .  S
C2130      C2131   1.436       .  A
C2131      C2138   1.517       .  S
C2131      C2132   1.411       .  A
C2132      C2133   1.401       .  A
C2132      H2137   1.084       .  S
C2133      C2134   1.403       .  A
C2134      C2135   1.517       .  S
C2135      F2139   1.384       .  S
C2135      F2140   1.383       .  S
C2135      F2141   1.383       .  S
C2138      F2142   1.379       .  S
C2138      F2143   1.382       .  S
C2138      F2144   1.386       .  S
C2145      C2146   1.398       .  A
C2145      C2150   1.404       .  A
C2145      H2152   1.081       .  S
C2146      C2147   1.420       .  A
C2147      C2154   1.518       .  S
C2147      C2148   1.417       .  A
C2148      C2149   1.408       .  A
C2148      H2153   1.084       .  S
C2149      C2150   1.424       .  A
C2150      C2151   1.520       .  S
C2151      F2155   1.385       .  S
C2151      F2156   1.379       .  S
C2151      F2157   1.381       .  S
C2154      F2158   1.382       .  S
C2154      F2159   1.382       .  S
C2154      F2160   1.383       .  S
C2161      C2162   1.401       .  A
C2161      C2166   1.409       .  A
C2161      H2168   1.084       .  S
C2162      C2163   1.421       .  A
C2163      C2170   1.514       .  S
C2163      C2164   1.416       .  A
C2164      C2165   1.404       .  A
C2164      H2169   1.083       .  S
C2165      C2166   1.419       .  A
C2166      C2167   1.516       .  S
C2167      F2171   1.383       .  S
C2167      F2172   1.382       .  S
C2167      F2173   1.384       .  S
C2170      F2174   1.378       .  S
C2170      F2175   1.382       .  S
C2170      F2176   1.384       .  S
C2177      C2178   1.422       .  A
C2177      C2182   1.416       .  A
C2177      H2184   1.071       .  S
C2178      C2179   1.443       .  A
C2179      C2186   1.540       .  S
C2179      C2180   1.408       .  A
C2180      C2181   1.399       .  A
C2180      H2185   1.081       .  S
C2181      C2182   1.410       .  A
C2182      C2183   1.519       .  S
C2183      F2187   1.385       .  S
C2183      F2188   1.384       .  S
C2183      F2189   1.382       .  S
C2186      F2190   1.378       .  S
C2186      F2191   1.376       .  S
C2186      F2192   1.385       .  S
C2193      C2194   1.422       .  A
C2193      C2198   1.410       .  A
C2193      H2200   1.080       .  S
C2194      C2195   1.438       .  A
C2195      C2202   1.524       .  S
C2195      C2196   1.411       .  A
C2196      C2197   1.399       .  A
C2196      H2201   1.083       .  S
C2197      C2198   1.403       .  A
C2198      C2199   1.515       .  S
C2199      F2203   1.384       .  S
C2199      F2204   1.384       .  S
C2199      F2205   1.383       .  S
C2202      F2206   1.383       .  S
C2202      F2207   1.371       .  S
C2202      F2208   1.386       .  S
C2209      C2210   1.406       .  A
C2209      C2214   1.410       .  A
C2209      H2216   1.083       .  S
C2210      C2211   1.425       .  A
C2211      C2218   1.513       .  S
C2211      C2212   1.414       .  A
C2212      C2213   1.404       .  A
C2212      H2217   1.085       .  S
C2213      C2214   1.418       .  A
C2214      C2215   1.514       .  S
C2215      F2219   1.385       .  S
C2215      F2220   1.382       .  S
C2215      F2221   1.382       .  S
C2218      F2222   1.383       .  S
C2218      F2223   1.375       .  S
C2218      F2224   1.384       .  S
C2225      C2226   1.407       .  A
C2225      C2230   1.412       .  A
C2225      H2232   1.083       .  S
C2226      C2227   1.420       .  A
C2227      C2234   1.519       .  S
C2227      C2228   1.406       .  A
C2228      C2229   1.404       .  A
C2228      H2233   1.085       .  S
C2229      C2230   1.415       .  A
C2230      C2231   1.516       .  S
C2231      F2235   1.385       .  S
C2231      F2236   1.382       .  S
C2231      F2237   1.383       .  S
C2234      F2238   1.383       .  S
C2234      F2239   1.378       .  S
C2234      F2240   1.383       .  S
C2241      C2242   1.412       .  A
C2241      C2246   1.401       .  A
C2241      H2248   1.079       .  S
C2242      C2243   1.432       .  A
C2243      C2250   1.526       .  S
C2243      C2244   1.402       .  A
C2244      C2245   1.401       .  A
C2244      H2249   1.083       .  S
C2245      C2246   1.411       .  A
C2246      C2247   1.523       .  S
C2247      F2251   1.384       .  S
C2247      F2252   1.384       .  S
C2247      F2253   1.381       .  S
C2250      F2254   1.378       .  S
C2250      F2255   1.382       .  S
C2250      F2256   1.386       .  S
C2257      C2258   1.402       .  A
C2257      C2262   1.414       .  A
C2257      H2264   1.084   1_556  S
C2258      C2259   1.422       .  A
C2259      C2266   1.516       .  S
C2259      C2260   1.405       .  A
C2260      C2261   1.403       .  A
C2260      H2265   1.085       .  S
C2261      C2262   1.424       .  A
C2262      C2263   1.517   1_556  S
C2263      F2267   1.385       .  S
C2263      F2268   1.383   1_554  S
C2263      F2269   1.382       .  S
C2266      F2270   1.370       .  S
C2266      F2271   1.385       .  S
C2266      F2272   1.382       .  S
C2273      C2274   1.401       .  A
C2273      C2278   1.408       .  A
C2273      H2280   1.085       .  S
C2274      C2275   1.420       .  A
C2275      C2282   1.513       .  S
C2275      C2276   1.405       .  A
C2276      C2277   1.397       .  A
C2276      H2281   1.084       .  S
C2277      C2278   1.418       .  A
C2278      C2279   1.515       .  S
C2279      F2283   1.384       .  S
C2279      F2284   1.383   1_556  S
C2279      F2285   1.384       .  S
C2282      F2286   1.381       .  S
C2282      F2287   1.379       .  S
C2282      F2288   1.385       .  S
C2289      C2290   1.414       .  A
C2289      C2294   1.409       .  A
C2289      H2296   1.075       .  S
C2290      C2291   1.431       .  A
C2291      C2298   1.525       .  S
C2291      C2292   1.402       .  A
C2292      C2293   1.404       .  A
C2292      H2297   1.085       .  S
C2293      C2294   1.419       .  A
C2294      C2295   1.521       .  S
C2295      F2299   1.385       .  S
C2295      F2300   1.383       .  S
C2295      F2301   1.382       .  S
C2298      F2302   1.373       .  S
C2298      F2303   1.383       .  S
C2298      F2304   1.385       .  S
C2305      C2306   1.411       .  A
C2305      C2310   1.413       .  A
C2305      H2312   1.082       .  S
C2306      C2307   1.417       .  A
C2307      C2314   1.518       .  S
C2307      C2308   1.402       .  A
C2308      C2309   1.405       .  A
C2308      H2313   1.084       .  S
C2309      C2310   1.413       .  A
C2310      C2311   1.515       .  S
C2311      F2315   1.385       .  S
C2311      F2316   1.383       .  S
C2311      F2317   1.383       .  S
C2314      F2318   1.376       .  S
C2314      F2319   1.379       .  S
C2314      F2320   1.385       .  S
C2321      C2322   1.411   1_554  A
C2321      C2326   1.416       .  A
C2321      H2328   1.083       .  S
C2322      C2323   1.427       .  A
C2323      C2330   1.522       .  S
C2323      C2324   1.402       .  A
C2324      C2325   1.396       .  A
C2324      H2329   1.086       .  S
C2325      C2326   1.412   1_556  A
C2326      C2327   1.515       .  S
C2327      F2331   1.384       .  S
C2327      F2332   1.383       .  S
C2327      F2333   1.384       .  S
C2330      F2334   1.382       .  S
C2330      F2335   1.378       .  S
C2330      F2336   1.385       .  S
C2337      C2338   1.402       .  A
C2337      C2342   1.408       .  A
C2337      H2344   1.084   1_554  S
C2338      C2339   1.415       .  A
C2339      C2346   1.514       .  S
C2339      C2340   1.408       .  A
C2340      C2341   1.401       .  A
C2340      H2345   1.083       .  S
C2341      C2342   1.417       .  A
C2342      C2343   1.518       .  S
C2343      F2347   1.384       .  S
C2343      F2348   1.384       .  S
C2343      F2349   1.380   1_554  S
C2346      F2350   1.383       .  S
C2346      F2351   1.381       .  S
C2346      F2352   1.384       .  S
C2353      C2354   1.421       .  A
C2353      C2358   1.408       .  A
C2353      H2360   1.073       .  S
C2354      C2355   1.436       .  A
C2355      C2362   1.532       .  S
C2355      C2356   1.407       .  A
C2356      C2357   1.404       .  A
C2356      H2361   1.082       .  S
C2357      C2358   1.409       .  A
C2358      C2359   1.520       .  S
C2359      F2363   1.385       .  S
C2359      F2364   1.382       .  S
C2359      F2365   1.384       .  S
C2362      F2366   1.386       .  S
C2362      F2367   1.377       .  S
C2362      F2368   1.381       .  S
C2369      C2370   1.402       .  A
C2369      C2374   1.410       .  A
C2369      H2376   1.084       .  S
C2370      C2371   1.431       .  A
C2371      C2378   1.524       .  S
C2371      C2372   1.411       .  A
C2372      C2373   1.400       .  A
C2372      H2377   1.085       .  S
C2373      C2374   1.424       .  A
C2374      C2375   1.517       .  S
C2375      F2379   1.384       .  S
C2375      F2380   1.383       .  S
C2375      F2381   1.381       .  S
C2378      F2382   1.379       .  S
C2378      F2383   1.383       .  S
C2378      F2384   1.384       .  S
C2385      C2386   1.416   1_545  A
C2385      C2390   1.421       .  A
C2385      H2392   1.081       .  S
C2386      C2387   1.426       .  A
C2387      C2394   1.518       .  S
C2387      C2388   1.422       .  A
C2388      C2389   1.414       .  A
C2388      H2393   1.082       .  S
C2389      C2390   1.423   1_565  A
C2390      C2391   1.517       .  S
C2391      F2395   1.385       .  S
C2391      F2396   1.376       .  S
C2391      F2397   1.380       .  S
C2394      F2398   1.383       .  S
C2394      F2399   1.385       .  S
C2394      F2400   1.382       .  S
C2401      C2402   1.408       .  A
C2401      C2406   1.422       .  A
C2401      H2408   1.083   1_545  S
C2402      C2403   1.422       .  A
C2403      C2410   1.518       .  S
C2403      C2404   1.419       .  A
C2404      C2405   1.407       .  A
C2404      H2409   1.083       .  S
C2405      C2406   1.417       .  A
C2406      C2407   1.513   1_545  S
C2407      F2411   1.384       .  S
C2407      F2412   1.382       .  S
C2407      F2413   1.384   1_565  S
C2410      F2414   1.381       .  S
C2410      F2415   1.384       .  S
C2410      F2416   1.385       .  S
C2417      C2418   1.409       .  A
C2417      C2422   1.408       .  A
C2417      H2424   1.083       .  S
C2418      C2419   1.410       .  A
C2419      C2426   1.509       .  S
C2419      C2420   1.400       .  A
C2420      C2421   1.400       .  A
C2420      H2425   1.084       .  S
C2421      C2422   1.411       .  A
C2422      C2423   1.517       .  S
C2423      F2427   1.384       .  S
C2423      F2428   1.383       .  S
C2423      F2429   1.384       .  S
C2426      F2430   1.383       .  S
C2426      F2431   1.381       .  S
C2426      F2432   1.384       .  S
C2433      C2434   1.416       .  A
C2433      C2438   1.402       .  A
C2433      H2440   1.074       .  S
C2434      C2435   1.440       .  A
C2435      C2442   1.532       .  S
C2435      C2436   1.403       .  A
C2436      C2437   1.396       .  A
C2436      H2441   1.083       .  S
C2437      C2438   1.407       .  A
C2438      C2439   1.519   1_554  S
C2439      F2443   1.385       .  S
C2439      F2444   1.384       .  S
C2439      F2445   1.382       .  S
C2442      F2446   1.380       .  S
C2442      F2447   1.379       .  S
C2442      F2448   1.386       .  S
C2449      C2450   1.425       .  A
C2449      C2454   1.414       .  A
C2449      H2456   1.079       .  S
C2450      C2451   1.436       .  A
C2451      C2458   1.522       .  S
C2451      C2452   1.407       .  A
C2452      C2453   1.399       .  A
C2452      H2457   1.082       .  S
C2453      C2454   1.405       .  A
C2454      C2455   1.516   1_554  S
C2455      F2459   1.384       .  S
C2455      F2460   1.382       .  S
C2455      F2461   1.383       .  S
C2458      F2462   1.383       .  S
C2458      F2463   1.376       .  S
C2458      F2464   1.385       .  S
C2465      C2466   1.403       .  A
C2465      C2470   1.399   1_554  A
C2465      H2472   1.084       .  S
C2466      C2467   1.419       .  A
C2467      C2474   1.520       .  S
C2467      C2468   1.400       .  A
C2468      C2469   1.399   1_554  A
C2468      H2473   1.084       .  S
C2469      C2470   1.411       .  A
C2470      C2471   1.513       .  S
C2471      F2475   1.384       .  S
C2471      F2476   1.379       .  S
C2471      F2477   1.381       .  S
C2474      F2478   1.383       .  S
C2474      F2479   1.383       .  S
C2474      F2480   1.385       .  S
C2481      C2482   1.404   1_554  A
C2481      C2486   1.405       .  A
C2481      H2488   1.083       .  S
C2482      C2483   1.419       .  A
C2483      C2490   1.521       .  S
C2483      C2484   1.392       .  A
C2484      C2485   1.395       .  A
C2484      H2489   1.078       .  S
C2485      C2486   1.417   1_556  A
C2486      C2487   1.520       .  S
C2487      F2491   1.385       .  S
C2487      F2492   1.382       .  S
C2487      F2493   1.382       .  S
C2490      F2494   1.373       .  S
C2490      F2495   1.383       .  S
C2490      F2496   1.384       .  S
C2497      C2498   1.410       .  A
C2497      C2502   1.396       .  A
C2497      H2504   1.083       .  S
C2498      C2499   1.417       .  A
C2499      C2506   1.518       .  S
C2499      C2500   1.406       .  A
C2500      C2501   1.405       .  A
C2500      H2505   1.082       .  S
C2501      C2502   1.412       .  A
C2502      C2503   1.522       .  S
C2503      F2507   1.386       .  S
C2503      F2508   1.383       .  S
C2503      F2509   1.381       .  S
C2506      F2510   1.384       .  S
C2506      F2511   1.379       .  S
C2506      F2512   1.385       .  S
C2513      C2514   1.409       .  A
C2513      C2518   1.405       .  A
C2513      H2520   1.079       .  S
C2514      C2515   1.422       .  A
C2515      C2522   1.514       .  S
C2515      C2516   1.426       .  A
C2516      C2517   1.411       .  A
C2516      H2521   1.083       .  S
C2517      C2518   1.419       .  A
C2518      C2519   1.524       .  S
C2519      F2523   1.385       .  S
C2519      F2524   1.377       .  S
C2519      F2525   1.380       .  S
C2522      F2526   1.384       .  S
C2522      F2527   1.382       .  S
C2522      F2528   1.384       .  S
C2529      C2530   1.396       .  A
C2529      C2534   1.406       .  A
C2529      H2536   1.085       .  S
C2530      C2531   1.418       .  A
C2531      C2538   1.517       .  S
C2531      C2532   1.416       .  A
C2532      C2533   1.405       .  A
C2532      H2537   1.083       .  S
C2533      C2534   1.431       .  A
C2534      C2535   1.524       .  S
C2535      F2539   1.383       .  S
C2535      F2540   1.378       .  S
C2535      F2541   1.384       .  S
C2538      F2542   1.384       .  S
C2538      F2543   1.382       .  S
C2538      F2544   1.384       .  S
C2545      C2546   1.400       .  A
C2545      C2550   1.399       .  A
C2545      H2552   1.085       .  S
C2546      C2547   1.420       .  A
C2547      C2554   1.515       .  S
C2547      C2548   1.422       .  A
C2548      C2549   1.408       .  A
C2548      H2553   1.083       .  S
C2549      C2550   1.429       .  A
C2550      C2551   1.521       .  S
C2551      F2555   1.385       .  S
C2551      F2556   1.368       .  S
C2551      F2557   1.384       .  S
C2554      F2558   1.383       .  S
C2554      F2559   1.383       .  S
C2554      F2560   1.384       .  S
C2561      C2562   1.402       .  A
C2561      C2566   1.408       .  A
C2561      H2568   1.083       .  S
C2562      C2563   1.424       .  A
C2563      C2570   1.517       .  S
C2563      C2564   1.408       .  A
C2564      C2565   1.400       .  A
C2564      H2569   1.083       .  S
C2565      C2566   1.425       .  A
C2566      C2567   1.518       .  S
C2567      F2571   1.379       .  S
C2567      F2572   1.374       .  S
C2567      F2573   1.385       .  S
C2570      F2574   1.386       .  S
C2570      F2575   1.384       .  S
C2570      F2576   1.379       .  S
C2577      C2578   1.399       .  A
C2577      C2582   1.406       .  A
C2577      H2584   1.082       .  S
C2578      C2579   1.420       .  A
C2579      C2586   1.518       .  S
C2579      C2580   1.407       .  A
C2580      C2581   1.401       .  A
C2580      H2585   1.085       .  S
C2581      C2582   1.418       .  A
C2582      C2583   1.517       .  S
C2583      F2587   1.385       .  S
C2583      F2588   1.382       .  S
C2583      F2589   1.381       .  S
C2586      F2590   1.382       .  S
C2586      F2591   1.380       .  S
C2586      F2592   1.384       .  S
C2593      C2594   1.406       .  A
C2593      C2598   1.414       .  A
C2593      H2600   1.083       .  S
C2594      C2595   1.418       .  A
C2595      C2602   1.518       .  S
C2595      C2596   1.407       .  A
C2596      C2597   1.404       .  A
C2596      H2601   1.085       .  S
C2597      C2598   1.418       .  A
C2598      C2599   1.517       .  S
C2599      F2603   1.385       .  S
C2599      F2604   1.383       .  S
C2599      F2605   1.383       .  S
C2602      F2606   1.383       .  S
C2602      F2607   1.382       .  S
C2602      F2608   1.383       .  S
C2609      C2610   1.396       .  A
C2609      C2614   1.406       .  A
C2609      H2616   1.084       .  S
C2610      C2611   1.412       .  A
C2611      C2618   1.525       .  S
C2611      C2612   1.406       .  A
C2612      C2613   1.419       .  A
C2612      H2617   1.077       .  S
C2613      C2614   1.438       .  A
C2614      C2615   1.526       .  S
C2615      F2619   1.386       .  S
C2615      F2620   1.382       .  S
C2615      F2621   1.377       .  S
C2618      F2622   1.382       .  S
C2618      F2623   1.384       .  S
C2618      F2624   1.385       .  S
C2625      C2626   1.405       .  A
C2625      C2630   1.416       .  A
C2625      H2632   1.083       .  S
C2626      C2627   1.431       .  A
C2627      C2634   1.528       .  S
C2627      C2628   1.405       .  A
C2628      C2629   1.403       .  A
C2628      H2633   1.085       .  S
C2629      C2630   1.421       .  A
C2630      C2631   1.515       .  S
C2631      F2635   1.385       .  S
C2631      F2636   1.383       .  S
C2631      F2637   1.383       .  S
C2634      F2638   1.383       .  S
C2634      F2639   1.378       .  S
C2634      F2640   1.386       .  S
C2641      C2642   1.407       .  A
C2641      C2646   1.413       .  A
C2641      H2648   1.085       .  S
C2642      C2643   1.421       .  A
C2643      C2650   1.516       .  S
C2643      C2644   1.424       .  A
C2644      C2645   1.411       .  A
C2644      H2649   1.083       .  S
C2645      C2646   1.422       .  A
C2646      C2647   1.517       .  S
C2647      F2651   1.382       .  S
C2647      F2652   1.383       .  S
C2647      F2653   1.385       .  S
C2650      F2654   1.383       .  S
C2650      F2655   1.383       .  S
C2650      F2656   1.384       .  S
C2657      C2658   1.410       .  A
C2657      C2662   1.405       .  A
C2657      H2664   1.081       .  S
C2658      C2659   1.423       .  A
C2659      C2666   1.519       .  S
C2659      C2660   1.413       .  A
C2660      C2661   1.408       .  A
C2660      H2665   1.083       .  S
C2661      C2662   1.419       .  A
C2662      C2663   1.519       .  S
C2663      F2667   1.385       .  S
C2663      F2668   1.378       .  S
C2663      F2669   1.374       .  S
C2666      F2670   1.383       .  S
C2666      F2671   1.383       .  S
C2666      F2672   1.385       .  S
C2673      C2674   1.394       .  A
C2673      C2678   1.401       .  A
C2673      H2680   1.085       .  S
C2674      C2675   1.408       .  A
C2675      C2682   1.518       .  S
C2675      C2676   1.406       .  A
C2676      C2677   1.415       .  A
C2676      H2681   1.082       .  S
C2677      C2678   1.429       .  A
C2678      C2679   1.518       .  S
C2679      F2683   1.379       .  S
C2679      F2684   1.383       .  S
C2679      F2685   1.385       .  S
C2682      F2686   1.383       .  S
C2682      F2687   1.383       .  S
C2682      F2688   1.384       .  S
C2689      C2690   1.405       .  A
C2689      C2694   1.398       .  A
C2689      H2696   1.083       .  S
C2690      C2691   1.414       .  A
C2691      C2698   1.515       .  S
C2691      C2692   1.416       .  A
C2692      C2693   1.413       .  A
C2692      H2697   1.083       .  S
C2693      C2694   1.418       .  A
C2694      C2695   1.515       .  S
C2695      F2699   1.385       .  S
C2695      F2700   1.373       .  S
C2695      F2701   1.379       .  S
C2698      F2702   1.384       .  S
C2698      F2703   1.383       .  S
C2698      F2704   1.384       .  S
C2705      C2706   1.403       .  A
C2705      C2710   1.403       .  A
C2705      H2712   1.084       .  S
C2706      C2707   1.415       .  A
C2707      C2714   1.519       .  S
C2707      C2708   1.407       .  A
C2708      C2709   1.405       .  A
C2708      H2713   1.081       .  S
C2709      C2710   1.411       .  A
C2710      C2711   1.516       .  S
C2711      F2715   1.384       .  S
C2711      F2716   1.381       .  S
C2711      F2717   1.381       .  S
C2714      F2718   1.383       .  S
C2714      F2719   1.384       .  S
C2714      F2720   1.384       .  S
C2721      C2722   1.407       .  A
C2721      C2726   1.402       .  A
C2721      H2728   1.078       .  S
C2722      C2723   1.432       .  A
C2723      C2730   1.527       .  S
C2723      C2724   1.403       .  A
C2724      C2725   1.400       .  A
C2724      H2729   1.082       .  S
C2725      C2726   1.409       .  A
C2726      C2727   1.507       .  S
C2727      F2731   1.385       .  S
C2727      F2732   1.380       .  S
C2727      F2733   1.382       .  S
C2730      F2734   1.382       .  S
C2730      F2735   1.382       .  S
C2730      F2736   1.385       .  S
C2737      C2738   1.406   1_565  A
C2737      C2742   1.412       .  A
C2737      H2744   1.085       .  S
C2738      C2739   1.421       .  A
C2739      C2746   1.519       .  S
C2739      C2740   1.409       .  A
C2740      C2741   1.402   1_545  A
C2740      H2745   1.082       .  S
C2741      C2742   1.422       .  A
C2742      C2743   1.519       .  S
C2743      F2747   1.383       .  S
C2743      F2748   1.379       .  S
C2743      F2749   1.384       .  S
C2746      F2750   1.380       .  S
C2746      F2751   1.383       .  S
C2746      F2752   1.385       .  S
C2753      C2754   1.404       .  A
C2753      C2758   1.423       .  A
C2753      H2760   1.083       .  S
C2754      C2755   1.417   1_545  A
C2755      C2762   1.515       .  S
C2755      C2756   1.403       .  A
C2756      C2757   1.408   1_565  A
C2756      H2761   1.079       .  S
C2757      C2758   1.441       .  A
C2758      C2759   1.524       .  S
C2759      F2763   1.385       .  S
C2759      F2764   1.382       .  S
C2759      F2765   1.381       .  S
C2762      F2766   1.383       .  S
C2762      F2767   1.383       .  S
C2762      F2768   1.384       .  S
C2769      C2770   1.408       .  A
C2769      C2774   1.416       .  A
C2769      H2776   1.082       .  S
C2770      C2771   1.428       .  A
C2771      C2778   1.505       .  S
C2771      C2772   1.408       .  A
C2772      C2773   1.394       .  A
C2772      H2777   1.081       .  S
C2773      C2774   1.422       .  A
C2774      C2775   1.516       .  S
C2775      F2779   1.385       .  S
C2775      F2780   1.380       .  S
C2775      F2781   1.383       .  S
C2778      F2782   1.377       .  S
C2778      F2783   1.375       .  S
C2778      F2784   1.385       .  S
C2785      C2786   1.408       .  A
C2785      C2790   1.412       .  A
C2785      H2792   1.085       .  S
C2786      C2787   1.411       .  A
C2787      C2794   1.518       .  S
C2787      C2788   1.411       .  A
C2788      C2789   1.420       .  A
C2788      H2793   1.078       .  S
C2789      C2790   1.429       .  A
C2790      C2791   1.521       .  S
C2791      F2795   1.383       .  S
C2791      F2796   1.379       .  S
C2791      F2797   1.385       .  S
C2794      F2798   1.385       .  S
C2794      F2799   1.383       .  S
C2794      F2800   1.382       .  S
C2801      C2802   1.411       .  A
C2801      C2806   1.408       .  A
C2801      H2808   1.082       .  S
C2802      C2803   1.430       .  A
C2803      C2810   1.522       .  S
C2803      C2804   1.408       .  A
C2804      C2805   1.400       .  A
C2804      H2809   1.082       .  S
C2805      C2806   1.418       .  A
C2806      C2807   1.522       .  S
C2807      F2811   1.379       .  S
C2807      F2812   1.382       .  S
C2807      F2813   1.385       .  S
C2810      F2814   1.382       .  S
C2810      F2815   1.383       .  S
C2810      F2816   1.386       .  S
C2817      C2818   1.411       .  A
C2817      C2822   1.410       .  A
C2817      H2824   1.080       .  S
C2818      C2819   1.422       .  A
C2819      C2826   1.519       .  S
C2819      C2820   1.417       .  A
C2820      C2821   1.412       .  A
C2820      H2825   1.083       .  S
C2821      C2822   1.420       .  A
C2822      C2823   1.517       .  S
C2823      F2827   1.385       .  S
C2823      F2828   1.375       .  S
C2823      F2829   1.379       .  S
C2826      F2830   1.383       .  S
C2826      F2831   1.383       .  S
C2826      F2832   1.385       .  S
C2833      C2834   1.412       .  A
C2833      C2838   1.425       .  A
C2833      H2840   1.082       .  S
C2834      C2835   1.426       .  A
C2835      C2842   1.520       .  S
C2835      C2836   1.408       .  A
C2836      C2837   1.400       .  A
C2836      H2841   1.079       .  S
C2837      C2838   1.421       .  A
C2838      C2839   1.516       .  S
C2839      F2843   1.385       .  S
C2839      F2844   1.383       .  S
C2839      F2845   1.383       .  S
C2842      F2846   1.383       .  S
C2842      F2847   1.378       .  S
C2842      F2848   1.383       .  S
C2849      C2850   1.407       .  A
C2849      C2854   1.405       .  A
C2849      H2856   1.085       .  S
C2850      C2851   1.408       .  A
C2851      C2858   1.516       .  S
C2851      C2852   1.396       .  A
C2852      C2853   1.411       .  A
C2852      H2857   1.080       .  S
C2853      C2854   1.420       .  A
C2854      C2855   1.519       .  S
C2855      F2859   1.386       .  S
C2855      F2860   1.383       .  S
C2855      F2861   1.383       .  S
C2858      F2862   1.384       .  S
C2858      F2863   1.382       .  S
C2858      F2864   1.384       .  S
C2865      C2866   1.401       .  A
C2865      C2870   1.421       .  A
C2865      H2872   1.083       .  S
C2866      C2867   1.416       .  A
C2867      C2874   1.517       .  S
C2867      C2868   1.413       .  A
C2868      C2869   1.412       .  A
C2868      H2873   1.082       .  S
C2869      C2870   1.435       .  A
C2870      C2871   1.518       .  S
C2871      F2875   1.381       .  S
C2871      F2876   1.376   1_655  S
C2871      F2877   1.385       .  S
C2874      F2878   1.383       .  S
C2874      F2879   1.381       .  S
C2874      F2880   1.385       .  S
