geometry optimzed in LAMMPS
_audit_creation_date              2020-11-30 
_audit_creation_method            'lammps2cif' 
_symmetry_space_group_name_H-M    'P1' 
_symmetry_Int_Tables_number       1 
_symmetry_cell_setting            triclinic 
loop_ 
_symmetry_equiv_pos_as_xyz 
  x,y,z 
_cell_length_a                    30.42574263 
_cell_length_b                    30.417013308705968 
_cell_length_c                    30.302486450222524 
_cell_angle_alpha                 89.91792034762415 
_cell_angle_beta                  90.07453110014853 
_cell_angle_gamma                 89.77890744096463 
loop_ 
_atom_site_label 
_atom_site_type_symbol 
_atom_site_fract_x 
_atom_site_fract_y 
_atom_site_fract_z 
_atom_site_charge 
O1          O  0.58137780  0.71623772  0.66313813    -0.78600
C2          C  0.71050239  0.70107459  0.57126059     0.82500
O3          O  0.54767626  0.62873865  0.55676691    -0.79700
O4          O  0.70340730  0.57686199  0.56782305    -0.81200
O5          O  0.67330725  0.58440585  0.72512038    -0.81000
O6          O  0.57812930  0.66513836  0.71576043    -0.79600
Zn7        Zn  0.62211365  0.68725904  0.61789403     1.55700
O8          O  0.72018852  0.57542007  0.66927565    -0.81000
Cd9        Cd  0.62270317  0.61786556  0.69232682     1.59700
Cd10       Cd  0.59437004  0.58463609  0.59047007     1.59600
O11         O  0.58653669  0.56522703  0.70122947    -0.81000
O12         O  0.63188582  0.62549506  0.62803850    -1.91500
Cd13       Cd  0.69526053  0.61541930  0.61945720     1.59900
O14         O  0.56533462  0.53701204  0.63687635    -0.81000
O15         O  0.72761094  0.66681888  0.58858390    -0.79600
C16         C  0.54857700  0.67123403  0.55517514     0.82900
C17         C  0.56268053  0.69966534  0.69696597     0.82600
O18         O  0.67255010  0.71515124  0.58288787    -0.78600
C19         C  0.70602586  0.56472709  0.70747359     0.83400
O20         O  0.57736439  0.69284412  0.57516577    -0.78700
C21         C  0.56760322  0.53572913  0.67951374     0.83500
C22         C  0.68112307  0.55536203  0.54043687     0.83800
O23         O  0.63885691  0.55282979  0.54322192    -0.81100
O24         O  0.82116782  0.59399582  0.26148039    -0.78600
C25         C  0.91793413  0.71643791  0.28611593     0.82500
O26         O  0.93354231  0.55999546  0.35419178    -0.79700
O27         O  0.91056773  0.70943998  0.40942986    -0.81200
O28         O  0.75983649  0.67610859  0.40271935    -0.81000
O29         O  0.76708189  0.58977929  0.31098909    -0.79600
Zn30       Zn  0.86682082  0.63009611  0.29412778     1.55700
O31         O  0.81287153  0.72646367  0.40462969    -0.81000
Cd32       Cd  0.79077235  0.62928984  0.36241053     1.59700
Cd33       Cd  0.89244758  0.60050001  0.39710366     1.59600
O34         O  0.78247375  0.58593722  0.40992718    -0.81000
O35         O  0.85491693  0.63817381  0.35575924    -1.91500
Cd36       Cd  0.86287860  0.70155265  0.36595148     1.59900
O37         O  0.84660961  0.56280930  0.43722554    -0.81000
O38         O  0.89781131  0.73455530  0.31814093    -0.79600
C39         C  0.93351972  0.55914408  0.31160832     0.82900
C40         C  0.78672151  0.57540362  0.27645635     0.82600
O41         O  0.90535932  0.67962411  0.27016337    -0.78600
C42         C  0.77759388  0.70985976  0.42014695     0.83400
O43         O  0.90931941  0.58435405  0.28944169    -0.78700
C44         C  0.80419901  0.56328657  0.43699453     0.83500
C45         C  0.93380542  0.68738509  0.43571963     0.83800
O46         O  0.93128919  0.64510919  0.43775831    -0.81100
O47         O  0.92592358  0.48954591  0.15533594    -0.78600
C48         C  0.83337029  0.46004538  0.02762980     0.82500
O49         O  0.82087155  0.39603505  0.19343508    -0.79700
O50         O  0.84024091  0.33907621  0.03996063    -0.81200
O51         O  0.99238187  0.34715844  0.08029911    -0.81000
O52         O  0.98399180  0.44456796  0.15926227    -0.79600
Zn53       Zn  0.88044170  0.45573645  0.11855715     1.55700
O54         O  0.94074857  0.34075815  0.02827896    -0.81000
Cd55       Cd  0.96044733  0.38974937  0.12431591     1.59700
Cd56       Cd  0.86006050  0.35349668  0.15084348     1.59600
O57         O  0.97102209  0.34557595  0.17132282    -0.81000
O58         O  0.89597585  0.39464178  0.11244096    -1.91500
Cd59       Cd  0.88943622  0.38112843  0.04861495     1.59900
O60         O  0.90762515  0.31285300  0.18766479    -0.81000
O61         O  0.85513168  0.42771769  0.01197145    -0.79600
C62         C  0.81697789  0.43829946  0.19242984     0.82900
C63         C  0.96262236  0.47834228  0.17279279     0.82600
O64         O  0.84300972  0.47673357  0.06526858    -0.78600
C65         C  0.97576686  0.32698138  0.04735499     0.83400
O66         O  0.83707563  0.46110877  0.16433291    -0.78700
C67         C  0.94990161  0.31608777  0.19111316     0.83500
C68         C  0.81480352  0.31654689  0.06350074     0.83800
O69         O  0.81780379  0.31634043  0.10605095    -0.81100
C70         C  0.74865081  0.53676915  0.98438455     0.80100
N71         N  0.78581448  0.52023894  0.00295629    -0.78200
C72         C  0.79369423  0.47668537  0.00376056     0.82600
N73         N  0.76289957  0.44900164  0.98605478    -0.78100
C74         C  0.72400338  0.46492906  0.96880975     0.82700
N75         N  0.71760996  0.50921431  0.96744716    -0.79800
C76         C  0.03642191  0.52257010  0.26040737     0.80100
N77         N  0.00729591  0.53598926  0.29150511    -0.78200
C78         C  0.96363837  0.53244367  0.28429730     0.82600
N79         N  0.94927657  0.51632706  0.24447256    -0.78100
C80         C  0.97832996  0.50175515  0.21322761     0.82700
N81         N  0.02192143  0.50495302  0.22171799    -0.79800
O82         O  0.60293569  0.25666560  0.82768102    -0.78600
C83         C  0.72598040  0.28757061  0.92808678     0.82500
O84         O  0.56414036  0.34965678  0.93374404    -0.79700
O85         O  0.71915756  0.41166092  0.91503093    -0.81200
O86         O  0.68378855  0.39766658  0.76447286    -0.81000
O87         O  0.59721575  0.30661860  0.77410489    -0.79600
Zn88       Zn  0.63958957  0.29085458  0.87378671     1.55700
O89         O  0.73549677  0.40222547  0.81647037    -0.81000
Cd90       Cd  0.63786516  0.35762306  0.79658031     1.59700
Cd91       Cd  0.60921121  0.39431529  0.89788893     1.59600
O92         O  0.59561354  0.40549007  0.78606368    -0.81000
O93         O  0.64730675  0.35295007  0.86119439    -1.91500
Cd94       Cd  0.71076542  0.36579727  0.86900403     1.59900
O95         O  0.57546352  0.43635460  0.84961700    -0.81000
O96         O  0.74337326  0.31934754  0.90696091    -0.79600
C97         C  0.56299676  0.30702508  0.93389055     0.82900
C98         C  0.58331520  0.27184594  0.79348423     0.82600
O99         O  0.68951987  0.27035689  0.91561208    -0.78600
C100        C  0.71774943  0.41611271  0.78074750     0.83400
O101        O  0.59109139  0.28480547  0.91329985    -0.78700
C102        C  0.57538276  0.43481783  0.80698415     0.83500
C103        C  0.69667253  0.43541587  0.94043392     0.83800
O104        O  0.65409077  0.43415634  0.93978156    -0.81100
O105        O  0.48818916  0.14770294  0.92293930    -0.78600
C106        C  0.45807335  0.02354169  0.82507678     0.82500
O107        O  0.39968869  0.18826569  0.81494400    -0.79700
O108        O  0.33293603  0.03279423  0.83173872    -0.81200
O109        O  0.34724533  0.07328629  0.98687914    -0.81000
O110        O  0.43623259  0.15987393  0.97323972    -0.79600
Zn111      Zn  0.45379621  0.11148909  0.87661382     1.55700
O112        O  0.33684017  0.02099858  0.93613201    -0.81000
Cd113      Cd  0.38399021  0.11987329  0.95155179     1.59700
Cd114      Cd  0.35269563  0.14381031  0.84770772     1.59600
O115        O  0.33518786  0.16270500  0.95883339    -0.81000
O116        O  0.39080563  0.10559408  0.88769676    -1.91500
Cd117      Cd  0.37567362  0.04187945  0.88137852     1.59900
O118        O  0.30744529  0.17924546  0.89269532    -0.81000
O119        O  0.42366253  0.00815791  0.84381955    -0.79600
C120        C  0.44227022  0.18796461  0.81546572     0.82900
C121        C  0.47311251  0.16987692  0.95548621     0.82600
O122        O  0.47533726  0.05980856  0.83786959    -0.78600
C123        C  0.32670075  0.03937087  0.97297781     0.83400
O124        O  0.46326363  0.15890949  0.83615580    -0.78700
C125        C  0.30683263  0.18189740  0.93541411     0.83500
C126        C  0.31613110  0.05549689  0.80117131     0.83800
O127        O  0.31945872  0.09804462  0.80088322    -0.81100
C128        C  0.50804383  0.25941920  0.03072633     0.80100
N129        N  0.49244245  0.22077333  0.01498407    -0.78200
C130        C  0.49636321  0.21032127  0.97187158     0.82600
N131        N  0.51690370  0.23984725  0.94432322    -0.78100
C132        C  0.53166675  0.27990425  0.96005197     0.82700
N133        N  0.52737423  0.28886800  0.00347249    -0.79800
C134        C  0.48588245  0.25258721  0.72241660     0.80100
N135        N  0.45779246  0.23096500  0.74937188    -0.78200
C136        C  0.47028988  0.21944202  0.79051491     0.82600
N137        N  0.51231538  0.22969455  0.80459541    -0.78100
C138        C  0.54059713  0.25257375  0.77766773     0.82700
N139        N  0.52657954  0.26373059  0.73678607    -0.79800
C140        C  0.54230992  0.98149607  0.74719949     0.80100
N141        N  0.51813397  0.96788565  0.71278362    -0.78200
C142        C  0.47425730  0.97118118  0.71282296     0.82600
N143        N  0.45340460  0.98728904  0.74995182    -0.78100
C144        C  0.47798769  0.00066837  0.78597642     0.82700
N145        N  0.52247327  0.99797029  0.78374998    -0.79800
C146        C  0.96048129  0.01166879  0.24297046     0.80100
N147        N  0.97602819  0.99290312  0.28049717    -0.78200
C148        C  0.01880625  0.99566213  0.29156743     0.82600
N149        N  0.04684774  0.01691120  0.26330354    -0.78100
C150        C  0.03178082  0.03438275  0.22405400     0.82700
N151        N  0.98824591  0.03224200  0.21460347    -0.79800
C152        C  0.23900344  0.27550860  0.97492522     0.80100
N153        N  0.22674075  0.26135131  0.01564237    -0.78200
C154        C  0.23850642  0.22105523  0.03063953     0.82600
N155        N  0.26268968  0.19435816  0.00335589    -0.78100
C156        C  0.27423945  0.20785228  0.96143094     0.82700
N157        N  0.26288425  0.24881572  0.94802371    -0.79800
C158        C  0.24666716  0.96202462  0.02388368     0.80100
N159        N  0.21499815  0.98941634  0.03951947    -0.78200
C160        C  0.21889404  0.03342927  0.03497918     0.82600
N161        N  0.25643608  0.04989893  0.01561753    -0.78100
C162        C  0.28807470  0.02235095  0.99860774     0.82700
N163        N  0.28258563  0.97848508  0.00298969    -0.79800
C164        C  0.26936572  0.96843637  0.24156033     0.80100
N165        N  0.24135521  0.94237849  0.26411514    -0.78200
C166        C  0.20088712  0.95710223  0.27455728     0.82600
N167        N  0.18911406  0.99959426  0.26341205    -0.78100
C168        C  0.21748899  0.02596753  0.24016841     0.82700
N169        N  0.25732804  0.00963629  0.22937148    -0.79800
C170        C  0.98806554  0.22705955  0.98000115     0.80100
N171        N  0.97896509  0.26842841  0.99353069    -0.78200
C172        C  0.99348555  0.28372205  0.03249262     0.82600
N173        N  0.01750067  0.25604010  0.05889685    -0.78100
C174        C  0.02656386  0.21354632  0.04561523     0.82700
N175        N  0.01235156  0.19966347  0.00569052    -0.79800
C176        C  0.99979543  0.26544041  0.29001170     0.80100
N177        N  0.03801340  0.24899196  0.27379689    -0.78200
C178        C  0.04756741  0.25209853  0.23040966     0.82600
N179        N  0.01743717  0.27165549  0.20288418    -0.78100
C180        C  0.97790081  0.28705338  0.21884844     0.82700
N181        N  0.96988807  0.28448218  0.26264583    -0.79800
O182        O  0.10453077  0.23937956  0.17707689    -0.78600
C183        C  0.21987997  0.20544740  0.07385191     0.82500
O184        O  0.05945325  0.14393814  0.07058256    -0.79700
O185        O  0.21353854  0.08563654  0.08916909    -0.81200
O186        O  0.17258058  0.09125715  0.23922457    -0.81000
O187        O  0.09730264  0.19143699  0.23250554    -0.79600
Zn188      Zn  0.13548267  0.20258192  0.13005351     1.55700
O189        O  0.22435883  0.08417577  0.18743771    -0.81000
Cd190      Cd  0.12909235  0.13497823  0.20846816     1.59700
Cd191      Cd  0.10308665  0.09991442  0.10755848     1.59600
O192        O  0.08051683  0.09227776  0.21907747    -0.81000
O193        O  0.14124304  0.14087027  0.14417969    -1.91500
Cd194      Cd  0.20508887  0.12859267  0.13720668     1.59900
O195        O  0.06524808  0.06007426  0.15482123    -0.81000
O196        O  0.23760231  0.17354266  0.09512118    -0.79600
C197        C  0.05844691  0.18641633  0.07073116     0.82900
C198        C  0.08626609  0.22728131  0.21302629     0.82600
O199        O  0.18368402  0.22259634  0.08699192    -0.78600
C200        C  0.20467457  0.07011808  0.22218677     0.83400
O201        O  0.08621522  0.20838182  0.09184721    -0.78700
C202        C  0.06066902  0.06330398  0.19716321     0.83500
C203        C  0.19130321  0.06203481  0.06367795     0.83800
O204        O  0.14874813  0.06134867  0.06561679    -0.81100
O205        O  0.47667911  0.82853532  0.57508281    -0.78600
C206        C  0.45190831  0.95019740  0.67474583     0.82500
O207        O  0.38183358  0.78979573  0.68000773    -0.79700
O208        O  0.33237500  0.95150206  0.66401241    -0.81200
O209        O  0.33561656  0.90665717  0.51464430    -0.81000
O210        O  0.42652085  0.82248875  0.52171874    -0.79600
Zn211      Zn  0.44301757  0.86362109  0.62188721     1.55700
O212        O  0.33712317  0.96180096  0.56340797    -0.81000
Cd213      Cd  0.37395544  0.85936448  0.54629273     1.59700
Cd214      Cd  0.33999891  0.83979847  0.64850394     1.59600
O215        O  0.32649410  0.81537008  0.53834087    -0.81000
O216        O  0.38202888  0.87344735  0.60959716    -1.91500
Cd217      Cd  0.37404830  0.93807489  0.61574372     1.59900
O218        O  0.29131001  0.81134306  0.60282376    -0.81000
O219        O  0.42157547  0.96991552  0.65337516    -0.79600
C220        C  0.42422001  0.78649271  0.67910086     0.82900
C221        C  0.46226403  0.80988269  0.54021327     0.82600
O222        O  0.46517794  0.91184778  0.66330536    -0.78600
C223        C  0.32082969  0.94306543  0.52935358     0.83400
O224        O  0.44739102  0.81434085  0.65956146    -0.78700
C225        C  0.29355839  0.80413979  0.56077869     0.83500
C226        C  0.31293225  0.93113473  0.69429314     0.83800
O227        O  0.31182584  0.88853987  0.69515297    -0.81100
O228        O  0.06763151  0.98268956  0.35262613    -0.78600
C229        C  0.16720957  0.94592828  0.46783719     0.82500
O230        O  0.17521553  0.88842714  0.30755265    -0.79700
O231        O  0.15299292  0.82297998  0.46258150    -0.81200
O232        O  0.00322645  0.84289377  0.42371513    -0.81000
O233        O  0.01679240  0.93224931  0.33794887    -0.79600
Zn234      Zn  0.11386646  0.94445012  0.38224185     1.55700
O235        O  0.05291055  0.83539490  0.47773193    -0.81000
Cd236      Cd  0.03781940  0.87772505  0.37544324     1.59700
Cd237      Cd  0.14057651  0.84411163  0.35196580     1.59600
O238        O  0.03076188  0.82947978  0.33171762    -0.81000
O239        O  0.10101063  0.88284912  0.38917636    -1.91500
Cd240      Cd  0.10741783  0.86900287  0.45322784     1.59900
O241        O  0.09649978  0.80060498  0.31592545    -0.81000
O242        O  0.14792604  0.91335021  0.48570700    -0.79600
C243        C  0.17443740  0.93084149  0.30595217     0.82900
C244        C  0.03475507  0.96951978  0.33016328     0.82600
O245        O  0.15367310  0.96282088  0.43165010    -0.78600
C246        C  0.01684982  0.82433128  0.45909975     0.83400
O247        O  0.15273160  0.95290893  0.33331450    -0.78700
C248        C  0.05415820  0.80106251  0.31250920     0.83500
C249        C  0.18365789  0.80619376  0.44034586     0.83800
O250        O  0.18543862  0.81023628  0.39789603    -0.81100
C251        C  0.97511031  0.74008802  0.53696975     0.80100
N252        N  0.99241389  0.77782399  0.52045768    -0.78200
C253        C  0.99321850  0.78537001  0.47659626     0.82600
N254        N  0.97708187  0.75391116  0.44896148    -0.78100
C255        C  0.96102908  0.71493245  0.46505497     0.82700
N256        N  0.95955272  0.70856829  0.50931721    -0.79800
C257        C  0.24623683  0.03084777  0.49495061     0.80100
N258        N  0.28255781  0.00862764  0.50723633    -0.78200
C259        C  0.28228160  0.96435926  0.50873845     0.82600
N260        N  0.24401685  0.94217407  0.49888678    -0.78100
C261        C  0.20689380  0.96560630  0.48732036     0.82700
N262        N  0.20900708  0.00953815  0.48494626    -0.79800
C263        C  0.23676216  0.71555287  0.50140007     0.80100
N264        N  0.25863682  0.73758576  0.53360738    -0.78200
C265        C  0.25903853  0.78196870  0.53432201     0.82600
N266        N  0.23813457  0.80426415  0.50088821    -0.78100
C267        C  0.21658220  0.78239204  0.46767799     0.82700
N268        N  0.21585858  0.73792373  0.46857548    -0.79800
C269        C  0.01701837  0.73394784  0.21772950     0.80100
N270        N  0.04346069  0.75714034  0.24536609    -0.78200
C271        C  0.02883845  0.76933218  0.28570803     0.82600
N272        N  0.98677132  0.75875331  0.29799257    -0.78100
C273        C  0.96027777  0.73492754  0.27067198     0.82700
N274        N  0.97603016  0.72247175  0.23104892    -0.79800
C275        C  0.22562913  0.00226656  0.73839237     0.80100
N276        N  0.24635399  0.96656733  0.72110751    -0.78200
C277        C  0.29013583  0.96089490  0.72603457     0.82600
N278        N  0.31332047  0.99244741  0.74868836    -0.78100
C279        C  0.29282450  0.02865206  0.76680565     0.82700
N280        N  0.24874851  0.03299696  0.76145503    -0.79800
C281        C  0.74668926  0.22220572  0.02940534     0.80100
N282        N  0.77131015  0.24970662  0.05436218    -0.78200
C283        C  0.78292883  0.28947120  0.03848342     0.82600
N284        N  0.77054000  0.30110792  0.99630979    -0.78100
C285        C  0.74548657  0.27345351  0.97106370     0.82700
N286        N  0.73367681  0.23430432  0.98824767    -0.79800
C287        C  0.47174293  0.72824676  0.77302286     0.80100
N288        N  0.44176163  0.74772245  0.74641974    -0.78200
C289        C  0.45023201  0.75297938  0.70312384     0.82600
N290        N  0.49043507  0.73941521  0.68684386    -0.78100
C291        C  0.52034699  0.71845711  0.71360315     0.82700
N292        N  0.51031451  0.71303684  0.75656341    -0.79800
C293        C  0.50041855  0.72731139  0.45945612     0.80100
N294        N  0.51774458  0.69495755  0.48502958    -0.78200
C295        C  0.51825460  0.69943067  0.52940861     0.82600
N296        N  0.50285132  0.73804462  0.54770413    -0.78100
C297        C  0.48495689  0.77047539  0.52173568     0.82700
N298        N  0.48350884  0.76421121  0.47781771    -0.79800
C299        C  0.76634238  0.78953143  0.51014681     0.80100
N300        N  0.74599276  0.76651424  0.54240280    -0.78200
C301        C  0.73420186  0.72432403  0.53559791     0.82600
N302        N  0.74169330  0.70533168  0.49499186    -0.78100
C303        C  0.76074491  0.72945571  0.46175837     0.82700
N304        N  0.77316088  0.77109137  0.47026792    -0.79800
C305        C  0.48281494  0.47874477  0.74348074     0.80100
N306        N  0.50635737  0.46210278  0.77771066    -0.78200
C307        C  0.55050722  0.46495528  0.77791820     0.82600
N308        N  0.57095550  0.48465822  0.74274947    -0.78100
C309        C  0.54733561  0.50183995  0.70807261     0.82700
N310        N  0.50313551  0.49896043  0.70914161    -0.79800
C311        C  0.79808562  0.50263239  0.75491364     0.80100
N312        N  0.77328575  0.53454270  0.73647084    -0.78200
C313        C  0.72970907  0.52928917  0.73123808     0.82600
N314        N  0.71072180  0.48987939  0.74302304    -0.78100
C315        C  0.73634541  0.45670968  0.76063605     0.82700
N316        N  0.77965039  0.46403731  0.76689306    -0.79800
C317        C  0.74259031  0.46931381  0.48058899     0.80100
N318        N  0.70905057  0.48957907  0.50245917    -0.78200
C319        C  0.70851841  0.53391758  0.50627763     0.82600
N320        N  0.74230494  0.55742310  0.48823261    -0.78100
C321        C  0.77627782  0.53723375  0.46675441     0.82700
N322        N  0.77577419  0.49313218  0.46266321    -0.79800
C323        C  0.72053636  0.47511915  0.25720049     0.80100
N324        N  0.74871756  0.44887185  0.23442018    -0.78200
C325        C  0.78890659  0.46396771  0.22303743     0.82600
N326        N  0.80033052  0.50628321  0.23397025    -0.78100
C327        C  0.77223486  0.53266314  0.25731687     0.82700
N328        N  0.73266255  0.51639296  0.26899859    -0.79800
O329        O  0.06809259  0.33837962  0.72713986    -0.78600
C330        C  0.20106861  0.42664991  0.72066040     0.82500
O331        O  0.06703330  0.46532727  0.63689173    -0.79700
O332        O  0.20474603  0.42560161  0.59086901    -0.81200
O333        O  0.16212711  0.28254959  0.59231964    -0.81000
O334        O  0.07641074  0.28031693  0.68308686    -0.79600
Zn335      Zn  0.11231659  0.38440563  0.70229824     1.55700
O336        O  0.21562879  0.33245558  0.59238199    -0.81000
Cd337      Cd  0.11425794  0.30981412  0.63361010     1.59700
Cd338      Cd  0.09371937  0.41172654  0.59695223     1.59600
O339        O  0.06428458  0.30451899  0.59289322    -0.81000
O340        O  0.12535809  0.37316825  0.64145140    -1.91500
Cd341      Cd  0.18943147  0.37909846  0.63398106     1.59900
O342        O  0.04468224  0.36935833  0.56477772    -0.81000
O343        O  0.21880277  0.40666161  0.68815900    -0.79600
C344        C  0.06528259  0.46753240  0.67940871     0.82900
C345        C  0.05586149  0.30023204  0.71399499     0.82600
O346        O  0.16236420  0.41726027  0.73388227    -0.78600
C347        C  0.19727771  0.29884568  0.57586277     0.83400
O348        O  0.07864124  0.43669334  0.70360401    -0.78700
C349        C  0.03947671  0.32735338  0.56885203     0.83500
C350        C  0.18581727  0.43931860  0.55655704     0.83800
O351        O  0.14385459  0.43570624  0.55120417    -0.81100
O352        O  0.56311209  0.15641129  0.47143111    -0.78600
C353        C  0.67904270  0.04536728  0.46283556     0.82500
O354        O  0.68499208  0.18521365  0.38678336    -0.79700
O355        O  0.66263570  0.03703707  0.32599094    -0.81200
O356        O  0.51964975  0.05809071  0.33740717    -0.81000
O357        O  0.50895714  0.14770750  0.42260947    -0.79600
Zn358      Zn  0.61464981  0.11982356  0.44633046     1.55700
O359        O  0.57395659  0.00862075  0.34369503    -0.81000
Cd360      Cd  0.54185367  0.11258121  0.37341362     1.59700
Cd361      Cd  0.64154757  0.14733405  0.34241910     1.59600
O362        O  0.52832528  0.16109317  0.33080276    -0.81000
O363        O  0.60653169  0.10785182  0.38380997    -1.91500
Cd364      Cd  0.62239672  0.04465891  0.37718126     1.59900
O365        O  0.59211439  0.18985827  0.30932667    -0.81000
O366        O  0.66656529  0.02572636  0.42756561    -0.79600
C367        C  0.68527190  0.18578305  0.42952759     0.82900
C368        C  0.52554840  0.16762896  0.45570932     0.82600
O369        O  0.65697658  0.07757656  0.47855431    -0.78600
C370        C  0.53817514  0.02200486  0.32581711     0.83400
O371        O  0.65854383  0.16337634  0.45139509    -0.78700
C372        C  0.54947106  0.18984982  0.30983433     0.83500
C373        C  0.68062274  0.05994423  0.29653988     0.83800
O374        O  0.67741018  0.10249696  0.29659417    -0.81100
C375        C  0.48848729  0.25243800  0.53562385     0.80100
N376        N  0.47055637  0.28370149  0.50919943    -0.78200
C377        C  0.46840414  0.27759896  0.46514711     0.82600
N378        N  0.48363378  0.23855716  0.44772037    -0.78100
C379        C  0.50300766  0.20731066  0.47423703     0.82700
N380        N  0.50518665  0.21483878  0.51809502    -0.79800
O381        O  0.40134527  0.31955181  0.27914105    -0.78600
C382        C  0.28915069  0.43451834  0.28928568     0.82500
O383        O  0.43626227  0.43986312  0.36226213    -0.79700
O384        O  0.28909010  0.42285543  0.42382323    -0.81200
O385        O  0.30578635  0.28212879  0.41483338    -0.81000
O386        O  0.39293054  0.26542576  0.32794065    -0.79600
Zn387      Zn  0.36597087  0.37183542  0.30430225     1.55700
O388        O  0.25699900  0.33699564  0.40925378    -0.81000
Cd389      Cd  0.36007013  0.30046540  0.37718191     1.59700
Cd390      Cd  0.39775692  0.39841004  0.40753134     1.59600
O391        O  0.40887008  0.28610034  0.41870474    -0.81000
O392        O  0.35670440  0.36468971  0.36668605    -1.91500
Cd393      Cd  0.29408699  0.38160999  0.37442829     1.59900
O394        O  0.43964866  0.34892137  0.43999928    -0.81000
O395        O  0.27072141  0.42226588  0.32497575    -0.79600
C396        C  0.43522118  0.43985643  0.31955261     0.82900
C397        C  0.41267462  0.28193278  0.29472731     0.82600
O398        O  0.32192719  0.41344105  0.27331751    -0.78600
C399        C  0.27026281  0.30140883  0.42695917     0.83400
O400        O  0.41039744  0.41455860  0.29858562    -0.78700
C401        C  0.43830554  0.30642287  0.43942926     0.83500
C402        C  0.31213353  0.43843594  0.45431775     0.83800
O403        O  0.35448000  0.43357453  0.45504860    -0.81100
C404        C  0.53533741  0.47615376  0.26287655     0.80100
N405        N  0.51882873  0.49305085  0.22464723    -0.78200
C406        C  0.47498173  0.49588793  0.21793462     0.82600
N407        N  0.44752670  0.48167284  0.25078834    -0.78100
C408        C  0.46391986  0.46622098  0.29034153     0.82700
N409        N  0.50794515  0.46301388  0.29561785    -0.79800
C410        C  0.48272060  0.74774194  0.95680016     0.80100
N411        N  0.47634823  0.70917554  0.97770740    -0.78200
C412        C  0.48828894  0.70332505  0.02012521     0.82600
N413        N  0.50654455  0.73811005  0.04251168    -0.78100
C414        C  0.51389574  0.77735831  0.02078685     0.82700
N415        N  0.50250421  0.78136336  0.97793271    -0.79800
O416        O  0.33488532  0.52025962  0.07226633    -0.78600
C417        C  0.45788598  0.51882126  0.17748056     0.82500
O418        O  0.32256425  0.61001446  0.19915100    -0.79700
O419        O  0.47207188  0.65405876  0.16499081    -0.81200
O420        O  0.43346441  0.65018673  0.02696152    -0.81000
O421        O  0.35314016  0.56303742  0.01558348    -0.79600
Zn422      Zn  0.37501857  0.54213228  0.12419386     1.55700
O423        O  0.48912730  0.64440864  0.07452216    -0.81000
Cd424      Cd  0.38415849  0.61149901  0.05107279     1.59700
Cd425      Cd  0.36050705  0.64734568  0.15141593     1.59600
O426        O  0.33460800  0.65296182  0.04220598    -0.81000
O427        O  0.39315439  0.60188799  0.11478243    -1.91500
Cd428      Cd  0.45806239  0.60570230  0.12337663     1.59900
O429        O  0.31829079  0.68380360  0.10670371    -0.81000
O430        O  0.47928005  0.55196736  0.16246462    -0.79600
C431        C  0.31689729  0.56802886  0.20031110     0.82900
C432        C  0.32834326  0.53403034  0.03268182     0.82600
O433        O  0.42079293  0.50755995  0.16096993    -0.78600
C434        C  0.47036476  0.66335500  0.04178749     0.83400
O435        O  0.33405584  0.54294610  0.17211797    -0.78700
C436        C  0.31264713  0.67984223  0.06472530     0.83500
C437        C  0.45228554  0.68619906  0.18205009     0.83800
O438        O  0.41001108  0.68986147  0.18090800    -0.81100
C439        C  0.24615039  0.52784264  0.50140065     0.80100
N440        N  0.28136007  0.50639679  0.48382986    -0.78200
C441        C  0.28492608  0.46209968  0.48742254     0.82600
N442        N  0.25150586  0.43968524  0.50801504    -0.78100
C443        C  0.21548072  0.46123409  0.52482642     0.82700
N444        N  0.21366069  0.50533524  0.52181662    -0.79800
O445        O  0.53173538  0.90993270  0.16448331    -0.78600
C446        C  0.53799148  0.81415829  0.04133107     0.82500
O447        O  0.62041465  0.79096147  0.18539194    -0.79700
O448        O  0.66701859  0.80706128  0.04633968    -0.81200
O449        O  0.65115491  0.96445573  0.06086230    -0.81000
O450        O  0.57611457  0.96742563  0.15832911    -0.79600
Zn451      Zn  0.55735435  0.86313929  0.12504466     1.55700
O452        O  0.67174409  0.90491484  0.02318714    -0.81000
Cd453      Cd  0.62289309  0.93831755  0.11727901     1.59700
Cd454      Cd  0.66067192  0.84150241  0.15155265     1.59600
O455        O  0.66877033  0.95392701  0.16062518    -0.81000
O456        O  0.61745917  0.87372260  0.11272763    -1.91500
Cd457      Cd  0.62736039  0.85908821  0.05013483     1.59900
O458        O  0.68653731  0.89206134  0.19623616    -0.81000
O459        O  0.57234773  0.82898661  0.02204076    -0.79600
C460        C  0.57796418  0.78798350  0.18462129     0.82900
C461        C  0.54474235  0.94758251  0.17756735     0.82600
O462        O  0.52525201  0.82893398  0.07844834    -0.78600
C463        C  0.67750697  0.94495153  0.03420713     0.83400
O464        O  0.55495301  0.81516303  0.16376757    -0.78700
C465        C  0.68658543  0.93446419  0.19267966     0.83500
C466        C  0.70447120  0.80451806  0.06397572     0.83800
O467        O  0.71066424  0.81725470  0.10423145    -0.81100
C468        C  0.75275374  0.72452615  0.98794455     0.80100
N469        N  0.77583543  0.75050633  0.95987642    -0.78200
C470        C  0.78072562  0.79382053  0.96832593     0.82600
N471        N  0.76194902  0.81113129  0.00592831    -0.78100
C472        C  0.73852032  0.78511724  0.03455029     0.82700
N473        N  0.73383535  0.74203604  0.02451181    -0.79800
O474        O  0.89328648  0.19364707  0.72413661    -0.78600
C475        C  0.79406378  0.07259032  0.71395409     0.82500
O476        O  0.93904019  0.06911204  0.64889519    -0.79700
O477        O  0.79154611  0.09006171  0.57817341    -0.81200
O478        O  0.80514490  0.22738711  0.58247405    -0.81000
O479        O  0.89088935  0.24484954  0.67122182    -0.79600
Zn480      Zn  0.86725236  0.13775460  0.69979923     1.55700
O481        O  0.75640469  0.17340163  0.58982268    -0.81000
Cd482      Cd  0.85771493  0.20877917  0.62334517     1.59700
Cd483      Cd  0.90086288  0.10986345  0.60105980     1.59600
O484        O  0.90591047  0.22110119  0.58171632    -0.81000
O485        O  0.85695268  0.14491524  0.63733921    -1.91500
Cd486      Cd  0.79400985  0.12957293  0.62894475     1.59900
O487        O  0.94343464  0.15917302  0.56959126    -0.81000
O488        O  0.77506287  0.08429517  0.67794536    -0.79600
C489        C  0.93996089  0.07129720  0.69163126     0.82900
C490        C  0.90622100  0.23014051  0.70753708     0.82600
O491        O  0.82523233  0.09526212  0.73035613    -0.78600
C492        C  0.77029611  0.20763747  0.56968135     0.83400
O493        O  0.91596921  0.09835381  0.71180385    -0.78700
C494        C  0.93863953  0.20130239  0.56600715     0.83500
C495        C  0.81620477  0.07166382  0.55065016     0.83800
O496        O  0.85873380  0.07374339  0.55360398    -0.81100
C497        C  0.72759153  0.97456298  0.74074517     0.80100
N498        N  0.74060595  0.01439933  0.72574683    -0.78200
C499        C  0.78100259  0.02993346  0.73471180     0.82600
N500        N  0.80915606  0.00417271  0.75917599    -0.78100
C501        C  0.79667575  0.96271508  0.77287848     0.82700
N502        N  0.75566456  0.94862536  0.76380428    -0.79800
O503        O  0.84007538  0.97625404  0.93542534    -0.78600
C504        C  0.96099574  0.98189529  0.83018229     0.82500
O505        O  0.82587826  0.89579377  0.80745060    -0.79700
O506        O  0.97295729  0.84367856  0.83486474    -0.81200
O507        O  0.94308433  0.84143662  0.97668654    -0.81000
O508        O  0.85510789  0.93012397  0.99089200    -0.79600
Zn509      Zn  0.88040802  0.95703947  0.88399892     1.55700
O510        O  0.99528368  0.85408106  0.92643951    -0.81000
Cd511      Cd  0.89032668  0.88205155  0.95605228     1.59700
Cd512      Cd  0.86104322  0.85363735  0.85428716     1.59600
O513        O  0.84010960  0.84098684  0.96546166    -0.81000
O514        O  0.89674623  0.89559515  0.89181639    -1.91500
Cd515      Cd  0.96089288  0.89122658  0.87898629     1.59900
O516        O  0.81633278  0.81873867  0.89968328    -0.81000
O517        O  0.98085234  0.94633536  0.84169828    -0.79600
C518        C  0.82273441  0.93816740  0.80622835     0.82900
C519        C  0.83157638  0.96073043  0.97382567     0.82600
O520        O  0.92564899  0.99423530  0.84948799    -0.78600
C521        C  0.98014827  0.83181629  0.95888614     0.83400
O522        O  0.84050514  0.96180376  0.83511822    -0.78700
C523        C  0.81343535  0.81944491  0.94232614     0.83500
C524        C  0.95132519  0.81310818  0.81721120     0.83800
O525        O  0.90900021  0.81084067  0.82099324    -0.81100
O526        O  0.10391324  0.69275017  0.77097805    -0.78600
C527        C  0.22042047  0.58057648  0.77967238     0.82500
O528        O  0.07571261  0.56832398  0.84649953    -0.79700
O529        O  0.22196586  0.58752125  0.91342752    -0.81200
O530        O  0.19602008  0.73048793  0.91221182    -0.81000
O531        O  0.11044484  0.74524287  0.82178644    -0.79600
Zn532      Zn  0.14310605  0.64175496  0.79359350     1.55700
O533        O  0.24778752  0.67854204  0.90587495    -0.81000
Cd534      Cd  0.14618095  0.71027423  0.86913365     1.59700
Cd535      Cd  0.11255454  0.60803210  0.89371352     1.59600
O536        O  0.09623433  0.71883119  0.91017935    -0.81000
O537        O  0.15252216  0.64652495  0.85642391    -1.91500
Cd538      Cd  0.21560663  0.63285597  0.86629388     1.59900
O539        O  0.07006282  0.65353330  0.93043378    -0.81000
O540        O  0.23937906  0.59427850  0.81476801    -0.79600
C541        C  0.07721042  0.56993035  0.80396856     0.82900
C542        C  0.09035439  0.72855660  0.78881873     0.82600
O543        O  0.18727366  0.60068198  0.76321013    -0.78600
C544        C  0.23104919  0.71141943  0.92605933     0.83400
O545        O  0.10072230  0.59733537  0.78421414    -0.78700
C546        C  0.06898139  0.69605878  0.93123445     0.83500
C547        C  0.19787244  0.56490528  0.93831878     0.83800
O548        O  0.15545183  0.56726534  0.93603116    -0.81100
C549        C  0.98822742  0.74490473  0.72329052     0.80100
N550        N  0.03000111  0.73403884  0.73504451    -0.78200
C551        C  0.04693619  0.74717900  0.77423256     0.82600
N552        N  0.02077045  0.77158486  0.80196911    -0.78100
C553        C  0.97788454  0.78140852  0.79080079     0.82700
N554        N  0.96224810  0.76791735  0.75142299    -0.79800
C555        C  0.98285970  0.52268945  0.74495726     0.80100
N556        N  0.00716247  0.54161511  0.77723032    -0.78200
C557        C  0.05135224  0.54175951  0.77407841     0.82600
N558        N  0.07084101  0.52281861  0.73790681    -0.78100
C559        C  0.04626165  0.50406157  0.70498747     0.82700
N560        N  0.00227425  0.50418465  0.70926495    -0.79800
C561        C  0.29730802  0.49192284  0.75010213     0.80100
N562        N  0.27077646  0.45827924  0.73947297    -0.78200
C563        C  0.22674723  0.46312146  0.74029933     0.82600
N564        N  0.20913654  0.50379674  0.75035245    -0.78100
C565        C  0.23657577  0.53844568  0.76051602     0.82700
N566        N  0.28042162  0.53155898  0.76096290    -0.79800
C567        C  0.77144722  0.97361650  0.49791894     0.80100
N568        N  0.80071650  0.00179417  0.51592643    -0.78200
C569        C  0.79131984  0.04513687  0.51807980     0.82600
N570        N  0.75073885  0.05967349  0.50313075    -0.78100
C571        C  0.72157697  0.03114841  0.48372608     0.82700
N572        N  0.73279188  0.98838056  0.48118427    -0.79800
C573        C  0.98402806  0.26990064  0.47761142     0.80100
N574        N  0.00411817  0.30261759  0.50054134    -0.78200
C575        C  0.00652408  0.30047545  0.54507356     0.82600
N576        N  0.98890030  0.26463293  0.56615325    -0.78100
C577        C  0.96950355  0.23115345  0.54321093     0.82700
N578        N  0.96699262  0.23450288  0.49891657    -0.79800
C579        C  0.98108490  0.25280009  0.79810460     0.80100
N580        N  0.01665229  0.27107071  0.77834798    -0.78200
C581        C  0.01623279  0.27952460  0.73440877     0.82600
N582        N  0.97912603  0.26934012  0.71019804    -0.78100
C583        C  0.94263485  0.25240091  0.73099829     0.82700
N584        N  0.94471666  0.24418306  0.77448516    -0.79800
C585        C  0.51173837  0.73867909  0.27274340     0.80100
N586        N  0.54722913  0.75657042  0.25214526    -0.78200
C587        C  0.55061707  0.75476925  0.20759859     0.82600
N588        N  0.51742087  0.73487000  0.18423889    -0.78100
C589        C  0.48149005  0.71737505  0.20501140     0.82700
N590        N  0.47942051  0.71919233  0.24918936    -0.79800
C591        C  0.77320636  0.00258233  0.24116682     0.80100
N592        N  0.75230762  0.96808739  0.22228966    -0.78200
C593        C  0.70827592  0.96465607  0.22408931     0.82600
N594        N  0.68476024  0.99752140  0.24433340    -0.78100
C595        C  0.70522996  0.03299383  0.26339272     0.82700
N596        N  0.74979467  0.03496755  0.26178034    -0.79800
C597        C  0.24960615  0.77681976  0.02738976     0.80100
N598        N  0.23796794  0.76497298  0.98583734    -0.78200
C599        C  0.24917081  0.72515883  0.96956743     0.82600
N600        N  0.27173017  0.69659624  0.99620846    -0.78100
C601        C  0.28256769  0.70798216  0.03873763     0.82700
N602        N  0.27179956  0.74836267  0.05380746    -0.79800
C603        C  0.74125459  0.28231246  0.47739665     0.80100
N604        N  0.75532109  0.26637469  0.51675724    -0.78200
C605        C  0.74871878  0.22404309  0.52821057     0.82600
N606        N  0.72813203  0.19703062  0.49845721    -0.78100
C607        C  0.71508290  0.21258897  0.45756299     0.82700
N608        N  0.72123184  0.25553714  0.44776277    -0.79800
C609        C  0.22152522  0.53385046  0.26706044     0.80100
N610        N  0.23443622  0.49311600  0.28032381    -0.78200
C611        C  0.27451844  0.47704525  0.26966320     0.82600
N612        N  0.30232690  0.50302650  0.24597020    -0.78100
C613        C  0.29025087  0.54483510  0.23363609     0.82700
N614        N  0.24954610  0.55975552  0.24383156    -0.79800
C615        C  0.24524311  0.46122295  0.98059065     0.80100
N616        N  0.21589460  0.49044362  0.96341858    -0.78200
C617        C  0.22267971  0.53422732  0.96761553     0.82600
N618        N  0.26034496  0.54826050  0.98840115    -0.78100
C619        C  0.28911532  0.51888625  0.00731126     0.82700
N620        N  0.28108967  0.47547280  0.00318622    -0.79800
C621        C  0.45430997  0.97229623  0.25277624     0.80100
N622        N  0.47419330  0.99146705  0.28790361    -0.78200
C623        C  0.51839374  0.99705762  0.28848124     0.82600
N624        N  0.54259877  0.98492858  0.25196649    -0.78100
C625        C  0.52180900  0.96690333  0.21595578     0.82700
N626        N  0.47831935  0.96017878  0.21756706    -0.79800
C627        C  0.50438264  0.25737702  0.21806082     0.80100
N628        N  0.46526878  0.27096953  0.23480676    -0.78200
C629        C  0.45281424  0.26008580  0.27615880     0.82600
N630        N  0.48093206  0.23502115  0.30143641    -0.78100
C631        C  0.52143998  0.22224484  0.28534171     0.82700
N632        N  0.53247017  0.23362894  0.24370036    -0.79800
C633        C  0.22529104  0.21404849  0.49498324     0.80100
N634        N  0.24194871  0.23688414  0.46100644    -0.78200
C635        C  0.24492882  0.28078425  0.46275123     0.82600
N636        N  0.23227984  0.30233128  0.50067652    -0.78100
C637        C  0.21557256  0.27852571  0.53558024     0.82700
N638        N  0.21215778  0.23460696  0.53204499    -0.79800
C639        C  0.02020760  0.74171171  0.03176831     0.80100
N640        N  0.00294953  0.78051554  0.01761540    -0.78200
C641        C  0.00393631  0.79133010  0.97429593     0.82600
N642        N  0.02294566  0.76232583  0.94522695    -0.78100
C643        C  0.03898865  0.72225616  0.95943834     0.82700
N644        N  0.03774569  0.71268330  0.00288333    -0.79800
C645        C  0.75283568  0.03809733  0.02586766     0.80100
N646        N  0.71699394  0.01288099  0.03101910    -0.78200
C647        C  0.71701202  0.97006635  0.02002157     0.82600
N648        N  0.75503943  0.95168569  0.00354652    -0.78100
C649        C  0.79188289  0.97747290  0.99747816     0.82700
N650        N  0.79007462  0.02070895  0.00834350    -0.79800
C651        C  0.03781535  0.01569522  0.74160465     0.80100
N652        N  0.01144216  0.03715847  0.71215799    -0.78200
C653        C  0.96805031  0.04301395  0.72114727     0.82600
N654        N  0.95175407  0.02804389  0.76102736    -0.78100
C655        C  0.97836867  0.00633860  0.79069970     0.82700
N656        N  0.02102591  0.00034440  0.78007246    -0.79800
C657        C  0.58261951  0.46751024  0.26605054    -0.00200
C658        C  0.60373865  0.45085678  0.22852611    -0.12100
C659        C  0.64933287  0.44806773  0.22666450     0.02000
C660        C  0.67441918  0.46283277  0.26287266    -0.00300
C661        C  0.65318035  0.47533363  0.30201976    -0.12100
C662        C  0.60737286  0.47727199  0.30411048     0.01900
H663        H  0.58455803  0.44170978  0.19977298     0.14900
H664        H  0.67249418  0.48621344  0.33007548     0.14900
C665        C  0.58706127  0.49239190  0.34439535     0.36500
C666        C  0.66909904  0.43411212  0.18564269     0.36400
N667        N  0.57100123  0.50426384  0.37688706    -0.43800
N668        N  0.68462736  0.42286741  0.15266776    -0.43800
C669        C  0.74348597  0.42149939  0.47655421    -0.00200
C670        C  0.70476984  0.39970269  0.46472385    -0.12100
C671        C  0.70397295  0.35396150  0.46193390     0.02000
C672        C  0.74267033  0.32976195  0.47057040    -0.00300
C673        C  0.78159565  0.35167688  0.48146504    -0.12100
C674        C  0.78224830  0.39729942  0.48489144     0.01900
H675        H  0.67493876  0.41837052  0.45867835     0.14900
H676        H  0.81091898  0.33292139  0.48949681     0.14900
C677        C  0.82191190  0.41802348  0.50077129     0.36500
C678        C  0.66227861  0.33265245  0.45434871     0.36400
N679        N  0.85344858  0.43469707  0.51390391    -0.43800
N680        N  0.62887413  0.31545009  0.44874898    -0.43800
C681        C  0.84547308  0.50813010  0.75769272    -0.00200
C682        C  0.87172613  0.47129878  0.74909427    -0.12100
C683        C  0.91687012  0.47534753  0.74580934     0.02000
C684        C  0.93612164  0.51706058  0.75108627    -0.00300
C685        C  0.91039952  0.55356247  0.76209326    -0.12100
C686        C  0.86500530  0.54950206  0.76542532     0.01900
H687        H  0.85685266  0.43935710  0.74350090     0.14900
H688        H  0.92574113  0.58543003  0.76706796     0.14900
C689        C  0.83949556  0.58786045  0.77730267     0.36500
C690        C  0.94262577  0.43608635  0.73783940     0.36400
N691        N  0.81906568  0.61856513  0.78688898    -0.43800
N692        N  0.96311370  0.40456784  0.73159140    -0.43800
C693        C  0.43517021  0.47784459  0.74534679    -0.00200
C694        C  0.41491085  0.48889486  0.78538523    -0.12100
C695        C  0.36951893  0.49310281  0.78768090     0.02000
C696        C  0.34432258  0.48538641  0.74967413    -0.00300
C697        C  0.36417798  0.47190981  0.71031885    -0.12100
C698        C  0.40966533  0.46840194  0.70773159     0.01900
H699        H  0.43460116  0.49580047  0.81439439     0.14900
H700        H  0.34421430  0.46538035  0.68139727     0.14900
C701        C  0.42925389  0.45474357  0.66650493     0.36500
C702        C  0.34932360  0.50522577  0.82910512     0.36400
N703        N  0.44505784  0.44385838  0.63353935    -0.43800
N704        N  0.33257621  0.51497379  0.86195646    -0.43800
C705        C  0.77504412  0.83621127  0.51569931    -0.00200
C706        C  0.74277055  0.86114103  0.53696607    -0.12100
C707        C  0.74244571  0.90645349  0.53289490     0.02000
C708        C  0.77527314  0.92716516  0.50759068    -0.00300
C709        C  0.81036114  0.90293830  0.49046061    -0.12100
C710        C  0.81043382  0.85724375  0.49415599     0.01900
H711        H  0.71582465  0.84514328  0.55397672     0.14900
H712        H  0.83628422  0.91943929  0.47234385     0.14900
C713        C  0.84632351  0.83277979  0.47473736     0.36500
C714        C  0.70709907  0.93079514  0.55357456     0.36400
N715        N  0.87515480  0.81333077  0.45917012    -0.43800
N716        N  0.67871942  0.95030480  0.56987158    -0.43800
C717        C  0.50352028  0.72560542  0.41172130    -0.00200
C718        C  0.46611968  0.73771766  0.38775497    -0.12100
C719        C  0.46831457  0.74344451  0.34241131     0.02000
C720        C  0.50888987  0.73748739  0.32064976    -0.00300
C721        C  0.54646259  0.72558991  0.34465872    -0.12100
C722        C  0.54401703  0.71912529  0.39009927     0.01900
H723        H  0.43526101  0.74338551  0.40471506     0.14900
H724        H  0.57742172  0.72032080  0.32778320     0.14900
C725        C  0.58368207  0.70728050  0.41362197     0.36500
C726        C  0.42858541  0.75636691  0.31951119     0.36400
N727        N  0.61560143  0.69756689  0.43209397    -0.43800
N728        N  0.39650181  0.76644835  0.30153514    -0.43800
C729        C  0.46995733  0.73802315  0.81956662    -0.00200
C730        C  0.43677057  0.72019464  0.84570866    -0.12100
C731        C  0.43758085  0.72685366  0.89116283     0.02000
C732        C  0.47259142  0.75080362  0.91003222    -0.00300
C733        C  0.50256607  0.77275727  0.88305170    -0.12100
C734        C  0.50122168  0.76687517  0.83780465     0.01900
H735        H  0.41123835  0.70026869  0.83086526     0.14900
H736        H  0.52865371  0.79238382  0.89735783     0.14900
C737        C  0.53232982  0.79056519  0.81071319     0.36500
C738        C  0.40241911  0.70906779  0.91770505     0.36400
N739        N  0.55688714  0.80959880  0.78875870    -0.43800
N740        N  0.37418168  0.69525821  0.93913581    -0.43800
C741        C  0.74259112  0.17612390  0.04190814    -0.00200
C742        C  0.78031191  0.15446792  0.05770125    -0.12100
C743        C  0.78364011  0.10882844  0.05515010     0.02000
C744        C  0.74906002  0.08490943  0.03603784    -0.00300
C745        C  0.70930347  0.10622967  0.02566514    -0.12100
C746        C  0.70569491  0.15166355  0.02892363     0.01900
H747        H  0.80837862  0.17319450  0.06894002     0.14900
H748        H  0.68169641  0.08771316  0.01293682     0.14900
C749        C  0.66447206  0.17258882  0.01741021     0.36500
C750        C  0.82238666  0.08744355  0.07264218     0.36400
N751        N  0.63140744  0.18937228  0.00853313    -0.43800
N752        N  0.85315331  0.07030037  0.08727446    -0.43800
C753        C  0.17758623  0.00576385  0.73421859    -0.00200
C754        C  0.15252355  0.96812521  0.74270505    -0.12100
C755        C  0.10674144  0.97029137  0.74338297     0.02000
C756        C  0.08525539  0.01044117  0.73384579    -0.00300
C757        C  0.11025046  0.04745147  0.72253707    -0.12100
C758        C  0.15625802  0.04553194  0.72314426     0.01900
H759        H  0.16877231  0.93738862  0.75087846     0.14900
H760        H  0.09389231  0.07842398  0.71544977     0.14900
C761        C  0.18083055  0.08458386  0.71226026     0.36500
C762        C  0.08267026  0.93115438  0.75536285     0.36400
N763        N  0.20072373  0.11576935  0.70358367    -0.43800
N764        N  0.06336698  0.90000539  0.76544415    -0.43800
C765        C  0.02821054  0.72783368  0.17074964    -0.00200
C766        C  0.00193457  0.69868868  0.14611319    -0.12100
C767        C  0.99983183  0.70173032  0.10031683     0.02000
C768        C  0.02499038  0.73361736  0.07872568    -0.00300
C769        C  0.05497931  0.75919292  0.10231095    -0.12100
C770        C  0.05723983  0.75637073  0.14817387     0.01900
H771        H  0.98044293  0.67565758  0.16274092     0.14900
H772        H  0.07550176  0.78258201  0.08489796     0.14900
C773        C  0.08751555  0.78525630  0.17057867     0.36500
C774        C  0.96913340  0.67445312  0.07651189     0.36400
N775        N  0.11190620  0.80843366  0.18829550    -0.43800
N776        N  0.94443411  0.65286227  0.05728609    -0.43800
C777        C  0.23697374  0.66738057  0.50147474    -0.00200
C778        C  0.24290330  0.64512883  0.46131537    -0.12100
C779        C  0.24648608  0.59935963  0.46044461     0.02000
C780        C  0.24336311  0.57562607  0.50015566    -0.00300
C781        C  0.23573019  0.59761817  0.53997312    -0.12100
C782        C  0.23288135  0.64325858  0.54105725     0.01900
H783        H  0.24575777  0.66352573  0.43081853     0.14900
H784        H  0.23260738  0.57906750  0.57038245     0.14900
C785        C  0.22495974  0.66425365  0.58307849     0.36500
C786        C  0.25219839  0.57742110  0.41855763     0.36400
N787        N  0.21878798  0.68106028  0.61675968    -0.43800
N788        N  0.25674632  0.55963284  0.38512329    -0.43800
C789        C  0.24569318  0.07792248  0.49374439    -0.00200
C790        C  0.22628744  0.09791414  0.45691138    -0.12100
C791        C  0.21836373  0.14267760  0.45680840     0.02000
C792        C  0.22938412  0.16712205  0.49450412    -0.00300
C793        C  0.24953857  0.14725092  0.53099847    -0.12100
C794        C  0.25826758  0.10262315  0.53073453     0.01900
H795        H  0.21662801  0.07831814  0.42863741     0.14900
H796        H  0.25917244  0.16674462  0.55932929     0.14900
C797        C  0.27837937  0.08292168  0.56925992     0.36500
C798        C  0.19813023  0.16242936  0.41833804     0.36400
N799        N  0.29466605  0.06724070  0.60005287    -0.43800
N800        N  0.18215415  0.17827008  0.38745904    -0.43800
C801        C  0.97482120  0.73991401  0.67711285    -0.00200
C802        C  0.98442082  0.70053216  0.65489995    -0.12100
C803        C  0.98135140  0.69833862  0.60883054     0.02000
C804        C  0.96976006  0.73639476  0.58489994    -0.00300
C805        C  0.95668940  0.77442677  0.60745650    -0.12100
C806        C  0.95906172  0.77656283  0.65317484     0.01900
H807        H  0.99617011  0.67233134  0.67329239     0.14900
H808        H  0.94671697  0.80339733  0.58912713     0.14900
C809        C  0.94946479  0.81834690  0.67385551     0.36500
C810        C  0.99316724  0.65784702  0.58698928     0.36400
N811        N  0.94192771  0.85178663  0.69044325    -0.43800
N812        N  0.00237172  0.62531619  0.56946675    -0.43800
C813        C  0.99253587  0.26534724  0.33764172    -0.00200
C814        C  0.97765522  0.30408655  0.35793433    -0.12100
C815        C  0.97428021  0.30661891  0.40379867     0.02000
C816        C  0.98530806  0.26955303  0.42951110    -0.00300
C817        C  0.99885079  0.23053641  0.40905918    -0.12100
C818        C  0.00289797  0.22820748  0.36348070     0.01900
H819        H  0.96982803  0.33274792  0.33800861     0.14900
H820        H  0.00731598  0.20197626  0.42889336     0.14900
C821        C  0.01728320  0.18721575  0.34414141     0.36500
C822        C  0.95859840  0.34701104  0.42338638     0.36400
N823        N  0.02890369  0.15440171  0.32869552    -0.43800
N824        N  0.94587772  0.37947456  0.43873072    -0.43800
C825        C  0.98172027  0.23895896  0.84423995    -0.00200
C826        C  0.94268614  0.24322976  0.86857578    -0.12100
C827        C  0.94190447  0.23274461  0.91319854     0.02000
C828        C  0.98065994  0.21764797  0.93367515    -0.00300
C829        C  0.01794331  0.20815315  0.90830276    -0.12100
C830        C  0.01892155  0.21914361  0.86368717     0.01900
H831        H  0.91339940  0.25683909  0.85330282     0.14900
H832        H  0.04774805  0.19649699  0.92414264     0.14900
C833        C  0.05867654  0.21066899  0.83910661     0.36500
C834        C  0.90221338  0.24114238  0.93813239     0.36400
N835        N  0.09053849  0.20400222  0.81936730    -0.43800
N836        N  0.87056976  0.24801496  0.95818406    -0.43800
C837        C  0.40669313  0.96583618  0.25070366    -0.00200
C838        C  0.38677021  0.96550288  0.20866241    -0.12100
C839        C  0.34146250  0.96235692  0.20433247     0.02000
C840        C  0.31577744  0.95832917  0.24238908    -0.00300
C841        C  0.33551653  0.95535378  0.28407631    -0.12100
C842        C  0.38073941  0.95977119  0.28869275     0.01900
H843        H  0.40631283  0.96979595  0.17907593     0.14900
H844        H  0.31521973  0.95308171  0.31341752     0.14900
C845        C  0.39901028  0.95927360  0.33270105     0.36500
C846        C  0.32181780  0.96535836  0.16096211     0.36400
N847        N  0.41342570  0.95925601  0.36806301    -0.43800
N848        N  0.30593827  0.96793736  0.12632816    -0.43800
C849        C  0.24439187  0.91476447  0.03293219    -0.00200
C850        C  0.28323672  0.89294206  0.04516173    -0.12100
C851        C  0.28436274  0.84735795  0.04886454     0.02000
C852        C  0.24614660  0.82310859  0.03922198    -0.00300
C853        C  0.20647452  0.84500313  0.03056124    -0.12100
C854        C  0.20515068  0.89077220  0.02794616     0.01900
H855        H  0.31323928  0.91144555  0.05020541     0.14900
H856        H  0.17716040  0.82617675  0.02315744     0.14900
C857        C  0.16406550  0.91187210  0.01664649     0.36500
C858        C  0.32608482  0.82630082  0.05815604     0.36400
N859        N  0.13118727  0.92899369  0.00777549    -0.43800
N860        N  0.35940648  0.80931561  0.06556104    -0.43800
C861        C  0.23535134  0.32261415  0.96504449    -0.00200
C862        C  0.27349674  0.34427225  0.95116594    -0.12100
C863        C  0.27668202  0.38982271  0.95434751     0.02000
C864        C  0.24089557  0.41427819  0.97106734    -0.00300
C865        C  0.20111308  0.39318521  0.98031142    -0.12100
C866        C  0.19814735  0.34741218  0.97755955     0.01900
H867        H  0.30209237  0.32545403  0.94106183     0.14900
H868        H  0.17317041  0.41217100  0.99176626     0.14900
C869        C  0.15697308  0.32653600  0.98829400     0.36500
C870        C  0.31742060  0.41040030  0.94127755     0.36400
N871        N  0.12388160  0.30979640  0.99652173    -0.43800
N872        N  0.35014688  0.42664790  0.93084830    -0.43800
C873        C  0.91317659  0.00954747  0.23478824    -0.00200
C874        C  0.89274121  0.96920061  0.24282134    -0.12100
C875        C  0.84723801  0.96616208  0.24478791     0.02000
C876        C  0.82129844  0.00433662  0.23881173    -0.00300
C877        C  0.84164403  0.04451733  0.22910409    -0.12100
C878        C  0.88745213  0.04734340  0.22663867     0.01900
H879        H  0.91256210  0.94020500  0.24923936     0.14900
H880        H  0.82178233  0.07363126  0.22357862     0.14900
C881        C  0.90696292  0.08964166  0.21782099     0.36500
C882        C  0.82866273  0.92381774  0.25558573     0.36400
N883        N  0.92221210  0.12367030  0.21048323    -0.43800
N884        N  0.81440664  0.88965216  0.26421846    -0.43800
C885        C  0.58981423  0.97652927  0.74441396    -0.00200
C886        C  0.61274021  0.96128892  0.78141865    -0.12100
C887        C  0.65812221  0.95576989  0.77981431     0.02000
C888        C  0.68074862  0.96541469  0.74028024    -0.00300
C889        C  0.65740696  0.97800800  0.70256885    -0.12100
C890        C  0.61229211  0.98425947  0.70433939     0.01900
H891        H  0.59524250  0.95449808  0.81189868     0.14900
H892        H  0.67501843  0.98616679  0.67246229     0.14900
C893        C  0.59075079  0.00192615  0.66556587     0.36500
C894        C  0.68076366  0.94424759  0.82017780     0.36400
N895        N  0.57378925  0.01622545  0.63445989    -0.43800
N896        N  0.69898715  0.93526225  0.85252629    -0.43800
C897        C  0.47661847  0.25574773  0.67528574    -0.00200
C898        C  0.48877831  0.29418190  0.65286981    -0.12100
C899        C  0.49148168  0.29458881  0.60690301     0.02000
C900        C  0.48307894  0.25562979  0.58336035    -0.00300
C901        C  0.46809401  0.21819919  0.60562462    -0.12100
C902        C  0.46428840  0.21803587  0.65128743     0.01900
H903        H  0.49809138  0.32314106  0.67139385     0.14900
H904        H  0.46006445  0.18872898  0.58734188     0.14900
C905        C  0.45096886  0.17757093  0.67245027     0.36500
C906        C  0.50551053  0.33436962  0.58511403     0.36400
N907        N  0.44017114  0.14517683  0.68926415    -0.43800
N908        N  0.51660117  0.36631902  0.56767252    -0.43800
C909        C  0.51181140  0.26488380  0.07812330    -0.00200
C910        C  0.53966602  0.23587879  0.10053013    -0.12100
C911        C  0.54077170  0.23504924  0.14638344     0.02000
C912        C  0.51288656  0.26365911  0.17048473    -0.00300
C913        C  0.48753887  0.29518115  0.14742018    -0.12100
C914        C  0.48690154  0.29594604  0.10135103     0.01900
H915        H  0.55948805  0.21266040  0.08199628     0.14900
H916        H  0.46664097  0.31792519  0.16523962     0.14900
C917        C  0.45862376  0.32682292  0.07862028     0.36500
C918        C  0.56877043  0.20239462  0.16686432     0.36400
N919        N  0.43607965  0.35142265  0.06008987    -0.43800
N920        N  0.59132706  0.17613406  0.18292650    -0.43800
C921        C  0.08324788  0.53256867  0.26585921    -0.00200
C922        C  0.10576882  0.54993082  0.22952484    -0.12100
C923        C  0.15099513  0.55663582  0.23120716     0.02000
C924        C  0.17450447  0.54439357  0.26952618    -0.00300
C925        C  0.15139957  0.53109502  0.30728038    -0.12100
C926        C  0.10585932  0.52564699  0.30596059     0.01900
H927        H  0.08808641  0.55729436  0.19925955     0.14900
H928        H  0.16935173  0.52217418  0.33695750     0.14900
C929        C  0.08393827  0.51003080  0.34517677     0.36500
C930        C  0.17254347  0.57264351  0.19190463     0.36400
N931        N  0.06662191  0.49776516  0.37684519    -0.49400
N932        N  0.18975458  0.58569983  0.16049465    -0.43800
C933        C  0.74586639  0.58469339  0.97871537    -0.00200
C934        C  0.78445471  0.60665128  0.96625951    -0.12100
C935        C  0.78666326  0.65234624  0.96651998     0.02000
C936        C  0.74979243  0.67693548  0.98028445    -0.00300
C937        C  0.71040118  0.65514307  0.99045379    -0.12100
C938        C  0.70797010  0.60922405  0.98909421     0.01900
H939        H  0.81353792  0.58789127  0.95738886     0.14900
H940        H  0.68175581  0.67400922  0.00035585     0.14900
C941        C  0.66709368  0.58823980  0.00057570     0.36500
C942        C  0.82795634  0.67277331  0.95506161     0.36400
N943        N  0.63415238  0.57156009  0.00948763    -0.43800
N944        N  0.86084582  0.68931293  0.94564760    -0.43800
loop_ 
_geom_bond_atom_site_label_1 
_geom_bond_atom_site_label_2 
_geom_bond_distance 
_geom_bond_site_symmetry_2 
_ccdc_geom_bond_type 
O1           C17   1.277       .  A
O1           Zn7   2.047       .  S
C2           O18   1.280       .  A
C2           O15   1.275       .  A
C2          C301   1.480       .  S
O3           C16   1.294       .  A
O3          Cd10   2.200       .  S
O4           C22   1.257       .  A
O4          Cd13   1.972       .  S
O5           C19   1.278       .  A
O5           Cd9   2.092       .  S
O6           C17   1.281       .  A
O6           Cd9   2.098       .  S
Zn7          O18   2.052       .  S
Zn7          O20   1.885       .  S
Zn7          O12   1.925       .  S
O8           C19   1.278       .  A
O8          Cd13   2.078       .  S
Cd9          O11   1.965       .  S
Cd9          O12   1.982       .  S
Cd10         O14   2.205       .  S
Cd10         O23   2.195       .  S
Cd10         O12   2.038       .  S
O11          C21   1.255       .  A
O12         Cd13   1.969       .  S
Cd13         O15   2.073       .  S
O14          C21   1.294       .  A
C16          O20   1.253       .  A
C16         C295   1.479       .  S
C17         C291   1.496       .  S
C19         C313   1.480       .  S
C21         C309   1.482       .  S
C22          O23   1.291       .  A
C22         C319   1.480       .  S
O24          C40   1.276       .  A
O24         Zn30   2.031       .  S
C25          O41   1.280       .  A
C25          O38   1.273       .  A
C25         C273   1.484       .  S
O26          C39   1.291       .  A
O26         Cd33   2.184       .  S
O27          C45   1.256       .  A
O27         Cd36   1.974       .  S
O28          C42   1.277       .  A
O28         Cd32   2.098       .  S
O29          C40   1.282       .  A
O29         Cd32   2.098       .  S
Zn30         O41   2.046       .  S
Zn30         O43   1.901       .  S
Zn30         O35   1.919       .  S
O31          C42   1.278       .  A
O31         Cd36   2.064       .  S
Cd32         O34   1.968       .  S
Cd32         O35   1.982       .  S
Cd33         O37   2.180       .  S
Cd33         O46   2.184       .  S
Cd33         O35   2.042       .  S
O34          C44   1.256       .  A
O35         Cd36   1.969       .  S
Cd36         O38   2.060       .  S
O37          C44   1.290       .  A
C39          O43   1.255       .  A
C39          C78   1.477       .  S
C40         C327   1.492       .  S
C42         C303   1.486       .  S
C44         C321   1.472       .  S
C45          O46   1.290       .  A
C45         C255   1.478       .  S
O47          C63   1.280       .  A
O47         Zn53   2.055       .  S
C48          O64   1.283       .  A
C48          O61   1.276       .  A
C48          C72   1.493       .  S
O49          C62   1.291       .  A
O49         Cd56   2.181       .  S
O50          C68   1.258       .  A
O50         Cd59   1.990       .  S
O51          C65   1.277       .  A
O51         Cd55   2.098       .  S
O52          C63   1.282       .  A
O52         Cd55   2.104       .  S
Zn53         O64   2.073       .  S
Zn53         O66   1.922       .  S
Zn53         O58   1.925       .  S
O54          C65   1.280       .  A
O54         Cd59   2.077       .  S
Cd55         O57   1.982       .  S
Cd55         O58   1.999       .  S
Cd56         O60   2.201       .  S
Cd56         O69   2.187       .  S
Cd56         O58   2.031       .  S
O57          C67   1.257       .  A
O58         Cd59   1.988       .  S
Cd59         O61   2.076       .  S
O60          C67   1.295       .  A
C62          O66   1.258       .  A
C62         C325   1.483       .  S
C63          C80   1.497       .  S
C65         C172   1.491       .  S
C67         C180   1.484       .  S
C68          O69   1.292       .  A
C68         C283   1.483       .  S
C70         C933   1.470       .  S
C70          N71   1.357   1_556  A
C70          N75   1.365       .  A
N71          C72   1.346       .  A
C72          N73   1.371   1_554  A
N73          C74   1.379       .  A
C74         C103   1.498       .  S
C74          N75   1.361       .  A
C76         C921   1.467       .  S
C76          N77   1.357       .  A
C76          N81   1.363       .  A
N77          C78   1.351   1_455  A
C78          N79   1.375       .  A
N79          C80   1.369       .  A
C80          N81   1.355   1_655  A
O82          C98   1.280       .  A
O82         Zn88   2.070       .  S
C83          O99   1.285       .  A
C83          O96   1.276       .  A
C83         C285   1.492       .  S
O84          C97   1.297       .  A
O84         Cd91   2.218       .  S
O85         C103   1.258       .  A
O85         Cd94   1.991       .  S
O86         C100   1.277       .  A
O86         Cd90   2.097       .  S
O87          C98   1.282       .  A
O87         Cd90   2.101       .  S
Zn88         O99   2.071       .  S
Zn88        O101   1.911       .  S
Zn88         O93   1.942       .  S
O89         C100   1.280       .  A
O89         Cd94   2.081       .  S
Cd90         O92   1.964       .  S
Cd90         O93   1.983       .  S
Cd91         O95   2.193       .  S
Cd91        O104   2.227       .  S
Cd91         O93   2.039       .  S
O92         C102   1.255       .  A
O93         Cd94   1.985       .  S
Cd94         O96   2.070       .  S
O95         C102   1.293       .  A
C97         O101   1.255       .  A
C97         C132   1.491       .  S
C98         C138   1.506       .  S
C100        C315   1.490       .  S
C102        C307   1.476       .  S
C103        O104   1.296       .  A
O105        C121   1.280       .  A
O105       Zn111   2.071       .  S
C106        O122   1.284       .  A
C106        O119   1.282       .  A
C106        C144   1.502       .  S
O107        C120   1.296       .  A
O107       Cd114   2.208       .  S
O108        C126   1.261       .  A
O108       Cd117   2.007       .  S
O109        C123   1.280       .  A
O109       Cd113   2.101       .  S
O110        C121   1.283       .  A
O110       Cd113   2.110       .  S
Zn111       O122   2.068       .  S
Zn111       O124   1.915       .  S
Zn111       O116   1.955       .  S
O112        C123   1.287       .  A
O112       Cd117   2.135       .  S
Cd113       O115   1.984       .  S
Cd113       O116   1.995       .  S
Cd114       O118   2.217       .  S
Cd114       O127   2.233       .  S
Cd114       O116   2.036       .  S
O115        C125   1.258       .  A
O116       Cd117   2.003       .  S
Cd117       O119   2.116       .  S
O118        C125   1.297       .  A
C120        O124   1.255       .  A
C120        C136   1.490       .  S
C121        C130   1.506       .  S
C123        C162   1.503       .  S
C125        C156   1.492       .  S
C126        O127   1.299       .  A
C126        C279   1.503       .  S
C128        C909   1.451       .  S
C128        N129   1.356       .  A
C128        N133   1.354       .  A
N129        C130   1.350   1_554  A
C130        N131   1.378       .  A
N131        C132   1.385       .  A
C132        N133   1.350   1_556  A
C134        C897   1.458       .  S
C134        N135   1.355       .  A
C134        N139   1.356       .  A
N135        C136   1.348       .  A
C136        N137   1.384       .  A
N137        C138   1.377       .  A
C138        N139   1.352       .  A
C140        C885   1.455       .  S
C140        N141   1.342       .  A
C140        N145   1.358       .  A
N141        C142   1.338       .  A
C142        C206   1.485       .  S
C142        N143   1.382       .  A
N143        C144   1.385   1_565  A
C144        N145   1.357   1_545  A
C146        C873   1.462       .  S
C146        N147   1.355   1_545  A
C146        N151   1.360       .  A
N147        C148   1.347   1_655  A
C148        C244   1.493       .  S
C148        N149   1.373   1_565  A
N149        C150   1.379       .  A
C150        C202   1.489       .  S
C150        N151   1.357   1_455  A
C152        C861   1.467       .  S
C152        N153   1.359   1_556  A
C152        N157   1.360       .  A
N153        C154   1.353       .  A
C154        C183   1.504       .  S
C154        N155   1.372       .  A
N155        C156   1.381   1_554  A
C156        N157   1.353       .  A
C158        C849   1.465       .  S
C158        N159   1.358       .  A
C158        N163   1.361       .  A
N159        C160   1.351   1_565  A
C160        C203   1.489       .  S
C160        N161   1.380       .  A
N161        C162   1.375   1_554  A
C162        N163   1.352   1_546  A
C164        C840   1.444       .  S
C164        N165   1.352       .  A
C164        N169   1.355   1_565  A
N165        C166   1.347       .  A
C166        C243   1.482       .  S
C166        N167   1.381       .  A
N167        C168   1.375   1_565  A
C168        C200   1.499       .  S
C168        N169   1.349       .  A
C170        C828   1.451       .  S
C170        N171   1.352       .  A
C170        N175   1.356   1_656  A
N171        C172   1.344   1_556  A
C172        N173   1.369   1_655  A
N173        C174   1.381       .  A
C174        C197   1.480       .  S
C174        N175   1.353       .  A
C176        C813   1.460       .  S
C176        N177   1.357   1_655  A
C176        N181   1.358       .  A
N177        C178   1.350       .  A
C178        C198   1.493       .  S
C178        N179   1.372       .  A
N179        C180   1.378   1_455  A
C180        N181   1.352       .  A
O182        C198   1.278       .  A
O182       Zn188   2.042       .  S
C183        O199   1.281       .  A
C183        O196   1.281       .  A
O184        C197   1.292       .  A
O184       Cd191   2.188       .  S
O185        C203   1.254       .  A
O185       Cd194   1.974       .  S
O186        C200   1.277       .  A
O186       Cd190   2.090       .  S
O187        C198   1.282       .  A
O187       Cd190   2.099       .  S
Zn188       O199   2.058       .  S
Zn188       O201   1.900       .  S
Zn188       O193   1.932       .  S
O189        C200   1.286       .  A
O189       Cd194   2.115       .  S
Cd190       O192   1.997       .  S
Cd190       O193   1.991       .  S
Cd191       O195   2.203       .  S
Cd191       O204   2.218       .  S
Cd191       O193   2.035       .  S
O192        C202   1.260       .  A
O193       Cd194   1.988       .  S
Cd194       O196   2.117       .  S
O195        C202   1.295       .  A
C197        O201   1.255       .  A
C203        O204   1.296       .  A
O205        C221   1.278       .  A
O205       Zn211   2.049       .  S
C206        O222   1.281       .  A
C206        O219   1.274       .  A
O207        C220   1.293       .  A
O207       Cd214   2.196       .  S
O208        C226   1.256       .  A
O208       Cd217   1.979       .  S
O209        C223   1.275       .  A
O209       Cd213   2.081       .  S
O210        C221   1.280       .  A
O210       Cd213   2.089       .  S
Zn211       O222   2.048       .  S
Zn211       O224   1.887       .  S
Zn211       O216   1.914       .  S
O212        C223   1.280       .  A
O212       Cd217   2.070       .  S
Cd213       O215   1.987       .  S
Cd213       O216   1.981       .  S
Cd214       O218   2.206       .  S
Cd214       O227   2.220       .  S
Cd214       O216   2.021       .  S
O215        C225   1.260       .  A
O216       Cd217   1.989       .  S
Cd217       O219   2.083       .  S
O218        C225   1.295       .  A
C220        O224   1.253       .  A
C220        C289   1.478       .  S
C221        C297   1.491       .  S
C223        C259   1.475       .  S
C225        C265   1.485       .  S
C226        O227   1.296       .  A
C226        C277   1.492       .  S
O228        C244   1.275       .  A
O228       Zn234   2.029       .  S
C229        O245   1.277       .  A
C229        O242   1.274       .  A
C229        C261   1.473       .  S
O230        C243   1.291       .  A
O230       Cd237   2.179       .  S
O231        C249   1.259       .  A
O231       Cd240   1.986       .  S
O232        C246   1.279       .  A
O232       Cd236   2.092       .  S
O233        C244   1.282       .  A
O233       Cd236   2.106       .  S
Zn234       O245   2.006       .  S
Zn234       O247   1.915       .  S
Zn234       O239   1.927       .  S
O235        C246   1.280       .  A
O235       Cd240   2.088       .  S
Cd236       O238   1.991       .  S
Cd236       O239   1.973       .  S
Cd237       O241   2.181       .  S
Cd237       O250   2.200       .  S
Cd237       O239   2.026       .  S
O238        C248   1.261       .  A
O239       Cd240   1.995       .  S
Cd240       O242   2.079       .  S
O241        C248   1.292       .  A
C243        O247   1.255       .  A
C246        C253   1.486   1_455  S
C248        C271   1.480       .  S
C249        O250   1.293       .  A
C249        C267   1.485       .  S
C251        C804   1.466       .  S
C251        N252   1.360       .  A
C251        N256   1.360       .  A
N252        C253   1.349       .  A
C253        N254   1.365       .  A
N254        C255   1.373       .  A
C255        N256   1.356       .  A
C257        C789   1.432       .  S
C257        N258   1.345       .  A
C257        N262   1.342       .  A
N258        C259   1.347   1_545  A
C259        N260   1.380       .  A
N260        C261   1.378       .  A
C261        N262   1.340   1_565  A
C263        C777   1.465       .  S
C263        N264   1.359       .  A
C263        N268   1.360       .  A
N264        C265   1.350       .  A
C265        N266   1.373       .  A
N266        C267   1.374       .  A
C267        N268   1.353       .  A
C269        C765   1.476       .  S
C269        N270   1.360       .  A
C269        N274   1.358   1_455  A
N270        C271   1.353       .  A
C271        N272   1.373   1_455  A
N272        C273   1.366       .  A
C273        N274   1.348       .  A
C275        C753   1.470       .  S
C275        N276   1.360   1_545  A
C275        N280   1.365       .  A
N276        C277   1.351       .  A
C277        N278   1.377       .  A
N278        C279   1.379   1_565  A
C279        N280   1.357       .  A
C281        C741   1.457       .  S
C281        N282   1.356       .  A
C281        N286   1.358   1_554  A
N282        C283   1.350       .  A
C283        N284   1.377   1_554  A
N284        C285   1.371       .  A
C285        N286   1.349       .  A
C287        C729   1.443       .  S
C287        N288   1.351       .  A
C287        N292   1.356       .  A
N288        C289   1.347       .  A
C289        N290   1.381       .  A
N290        C291   1.373       .  A
C291        N292   1.348       .  A
C293        C717   1.451       .  S
C293        N294   1.356       .  A
C293        N298   1.354       .  A
N294        C295   1.352       .  A
C295        N296   1.380       .  A
N296        C297   1.372       .  A
C297        N298   1.345       .  A
C299        C705   1.455       .  S
C299        N300   1.353       .  A
C299        N304   1.349       .  A
N300        C301   1.350       .  A
C301        N302   1.379       .  A
N302        C303   1.375       .  A
C303        N304   1.348       .  A
C305        C693   1.451       .  S
C305        N306   1.356       .  A
C305        N310   1.359       .  A
N306        C307   1.346       .  A
C307        N308   1.373       .  A
N308        C309   1.374       .  A
C309        N310   1.348       .  A
C311        C681   1.454       .  S
C311        N312   1.347       .  A
C311        N316   1.352       .  A
N312        C313   1.345       .  A
C313        N314   1.379       .  A
N314        C315   1.379       .  A
C315        N316   1.350       .  A
C317        C669   1.460       .  S
C317        N318   1.363       .  A
C317        N322   1.358       .  A
N318        C319   1.354       .  A
C319        N320   1.369       .  A
N320        C321   1.366       .  A
C321        N322   1.347       .  A
C323        C660   1.464       .  S
C323        N324   1.359       .  A
C323        N328   1.358       .  A
N324        C325   1.353       .  A
C325        N326   1.375       .  A
N326        C327   1.369       .  A
C327        N328   1.351       .  A
O329        C345   1.284       .  A
O329       Zn335   2.086       .  S
C330        O346   1.278       .  A
C330        O343   1.277       .  A
C330        C563   1.484       .  S
O331        C344   1.291       .  A
O331       Cd338   2.186       .  S
O332        C350   1.258       .  A
O332       Cd341   1.981       .  S
O333        C347   1.282       .  A
O333       Cd337   2.091       .  S
O334        C345   1.279       .  A
O334       Cd337   2.095       .  S
Zn335       O346   2.060       .  S
Zn335       O348   1.889       .  S
Zn335       O340   1.917       .  S
O336        C347   1.270       .  A
O336       Cd341   2.058       .  S
Cd337       O339   1.964       .  S
Cd337       O340   1.972       .  S
Cd338       O342   2.203       .  S
Cd338       O351   2.189       .  S
Cd338       O340   2.026       .  S
O339        C349   1.255       .  A
O340       Cd341   1.972       .  S
Cd341       O343   2.050       .  S
O342        C349   1.294       .  A
C344        O348   1.256       .  A
C344        C559   1.473       .  S
C345        C581   1.497       .  S
C347        C637   1.478       .  S
C349        C575   1.483       .  S
C350        O351   1.292       .  A
C350        C443   1.479       .  S
O352        C368   1.282       .  A
O352       Zn358   2.066       .  S
C353        O369   1.278       .  A
C353        O366   1.283       .  A
C353        C571   1.502       .  S
O354        C367   1.295       .  A
O354       Cd361   2.212       .  S
O355        C373   1.259       .  A
O355       Cd364   1.991       .  S
O356        C370   1.282       .  A
O356       Cd360   2.099       .  S
O357        C368   1.277       .  A
O357       Cd360   2.089       .  S
Zn358       O369   2.060       .  S
Zn358       O371   1.891       .  S
Zn358       O363   1.945       .  S
O359        C370   1.280       .  A
O359       Cd364   2.101       .  S
Cd360       O362   2.001       .  S
Cd360       O363   1.997       .  S
Cd361       O365   2.218       .  S
Cd361       O374   2.231       .  S
Cd361       O363   2.039       .  S
O362        C372   1.260       .  A
O363       Cd364   1.991       .  S
Cd364       O366   2.111       .  S
O365        C372   1.298       .  A
C367        O371   1.253       .  A
C367        C607   1.488       .  S
C368        C379   1.496       .  S
C370        C623   1.491   1_545  S
C372        C631   1.496       .  S
C373        O374   1.298       .  A
C373        C595   1.497       .  S
C375        C900   1.459       .  S
C375        N376   1.355       .  A
C375        N380   1.359       .  A
N376        C377   1.350       .  A
C377        C401   1.485       .  S
C377        N378   1.379       .  A
N378        C379   1.374       .  A
C379        N380   1.350       .  A
O381        C397   1.283       .  A
O381       Zn387   2.064       .  S
C382        O398   1.279       .  A
C382        O395   1.275       .  A
C382        C611   1.489       .  S
O383        C396   1.295       .  A
O383       Cd390   2.203       .  S
O384        C402   1.254       .  A
O384       Cd393   1.960       .  S
O385        C399   1.282       .  A
O385       Cd389   2.086       .  S
O386        C397   1.276       .  A
O386       Cd389   2.089       .  S
Zn387       O398   2.064       .  S
Zn387       O400   1.887       .  S
Zn387       O392   1.924       .  S
O388        C399   1.272       .  A
O388       Cd393   2.059       .  S
Cd389       O391   1.992       .  S
Cd389       O392   1.981       .  S
Cd390       O394   2.199       .  S
Cd390       O403   2.225       .  S
Cd390       O392   2.038       .  S
O391        C401   1.258       .  A
O392       Cd393   1.986       .  S
Cd393       O395   2.065       .  S
O394        C401   1.294       .  A
C396        O400   1.253       .  A
C396        C408   1.481       .  S
C397        C629   1.499       .  S
C399        C635   1.472       .  S
C402        O403   1.296       .  A
C402        C441   1.486       .  S
C404        C657   1.464       .  S
C404        N405   1.361       .  A
C404        N409   1.357       .  A
N405        C406   1.352       .  A
C406        C417   1.501       .  S
C406        N407   1.371       .  A
N407        C408   1.379       .  A
C408        N409   1.352       .  A
C410        C732   1.453       .  S
C410        N411   1.347       .  A
C410        N415   1.351       .  A
N411        C412   1.347   1_556  A
C412        C434   1.487       .  S
C412        N413   1.376       .  A
N413        C414   1.382       .  A
C414        C446   1.478       .  S
C414        N415   1.349   1_554  A
O416        C432   1.285       .  A
O416       Zn422   2.101       .  S
C417        O433   1.282       .  A
C417        O430   1.285       .  A
O418        C431   1.290       .  A
O418       Cd425   2.174       .  S
O419        C437   1.258       .  A
O419       Cd428   1.986       .  S
O420        C434   1.275       .  A
O420       Cd424   2.045       .  S
O421        C432   1.273       .  A
O421       Cd424   2.057       .  S
Zn422       O433   2.066       .  S
Zn422       O435   1.915       .  S
Zn422       O427   1.923       .  S
O423        C434   1.279       .  A
O423       Cd428   2.116       .  S
Cd424       O426   1.980       .  S
Cd424       O427   1.971       .  S
Cd425       O429   2.167       .  S
Cd425       O438   2.180       .  S
Cd425       O427   2.032       .  S
O426        C436   1.257       .  A
O427       Cd428   1.995       .  S
Cd428       O430   2.116       .  S
O429        C436   1.289       .  A
C431        O435   1.259       .  A
C431        C613   1.476       .  S
C432        C619   1.494       .  S
C436        C601   1.477       .  S
C437        O438   1.291       .  A
C437        C589   1.476       .  S
C439        C780   1.456       .  S
C439        N440   1.362       .  A
C439        N444   1.354       .  A
N440        C441   1.356       .  A
C441        N442   1.376       .  A
N442        C443   1.374       .  A
C443        N444   1.345       .  A
O445        C461   1.277       .  A
O445       Zn451   2.015       .  S
C446        O462   1.272       .  A
C446        O459   1.282       .  A
O447        C460   1.295       .  A
O447       Cd454   2.220       .  S
O448        C466   1.260       .  A
O448       Cd457   1.990       .  S
O449        C463   1.283       .  A
O449       Cd453   2.073       .  S
O450        C461   1.273       .  A
O450       Cd453   2.087       .  S
Zn451       O462   2.010       .  S
Zn451       O464   1.873       .  S
Zn451       O456   1.896       .  S
O452        C463   1.276       .  A
O452       Cd457   2.109       .  S
Cd453       O455   1.975       .  S
Cd453       O456   1.977       .  S
Cd454       O458   2.198       .  S
Cd454       O467   2.217       .  S
Cd454       O456   2.014       .  S
O455        C465   1.258       .  A
O456       Cd457   1.972       .  S
Cd457       O459   2.092       .  S
O458        C465   1.294       .  A
C460        O464   1.251       .  A
C460        C587   1.485       .  S
C461        C625   1.479       .  S
C463        C647   1.490       .  S
C465        C593   1.480       .  S
C466        O467   1.294       .  A
C466        C472   1.489       .  S
C468        C936   1.469       .  S
C468        N469   1.358       .  A
C468        N473   1.358   1_556  A
N469        C470   1.351       .  A
C470        C523   1.492       .  S
C470        N471   1.380   1_556  A
N471        C472   1.375       .  A
C472        N473   1.354       .  A
O474        C490   1.282       .  A
O474       Zn480   2.018       .  S
C475        O491   1.275       .  A
C475        O488   1.283       .  A
C475        C499   1.496       .  S
O476        C489   1.297       .  A
O476       Cd483   2.228       .  S
O477        C495   1.254       .  A
O477       Cd486   1.955       .  S
O478        C492   1.281       .  A
O478       Cd482   2.097       .  S
O479        C490   1.275       .  A
O479       Cd482   2.082       .  S
Zn480       O491   2.043       .  S
Zn480       O493   1.936       .  S
Zn480       O485   1.930       .  S
O481        C492   1.280       .  A
O481       Cd486   2.115       .  S
Cd482       O484   1.972       .  S
Cd482       O485   1.988       .  S
Cd483       O487   2.202       .  S
Cd483       O496   2.220       .  S
Cd483       O485   2.031       .  S
O484        C494   1.256       .  A
O485       Cd486   1.989       .  S
Cd486       O488   2.106       .  S
O487        C494   1.294       .  A
C489        O493   1.258       .  A
C489        C653   1.504       .  S
C490        C583   1.482       .  S
C492        C605   1.501       .  S
C494        C577   1.480       .  S
C495        O496   1.299       .  A
C495        C569   1.484       .  S
C497        C888   1.453       .  S
C497        N498   1.354   1_565  A
C497        N502   1.353       .  A
N498        C499   1.346       .  A
C499        N500   1.374       .  A
N500        C501   1.382   1_545  A
C501        C518   1.483       .  S
C501        N502   1.349       .  A
O503        C519   1.282       .  A
O503       Zn509   2.068       .  S
C504        O520   1.280       .  A
C504        O517   1.285       .  A
C504        C655   1.505   1_565  S
O505        C518   1.293       .  A
O505       Cd512   2.187       .  S
O506        C524   1.261       .  A
O506       Cd515   2.004       .  S
O507        C521   1.284       .  A
O507       Cd511   2.115       .  S
O508        C519   1.280       .  A
O508       Cd511   2.097       .  S
Zn509       O520   2.069       .  S
Zn509       O522   1.919       .  S
Zn509       O514   1.946       .  S
O510        C521   1.280       .  A
O510       Cd515   2.103       .  S
Cd511       O513   1.998       .  S
Cd511       O514   1.999       .  S
Cd512       O516   2.209       .  S
Cd512       O525   2.199       .  S
Cd512       O514   2.028       .  S
O513        C523   1.258       .  A
O514       Cd515   1.995       .  S
Cd515       O517   2.112       .  S
O516        C523   1.296       .  A
C518        O522   1.257       .  A
C519        C649   1.493       .  S
C521        C641   1.500   1_655  S
C524        O525   1.295       .  A
C524        C553   1.490       .  S
O526        C542   1.284       .  A
O526       Zn532   2.068       .  S
C527        O543   1.278       .  A
C527        O540   1.280       .  A
C527        C565   1.490       .  S
O528        C541   1.291       .  A
O528       Cd535   2.185       .  S
O529        C547   1.258       .  A
O529       Cd538   1.993       .  S
O530        C544   1.281       .  A
O530       Cd534   2.094       .  S
O531        C542   1.277       .  A
O531       Cd534   2.087       .  S
Zn532       O543   2.051       .  S
Zn532       O545   1.893       .  S
Zn532       O537   1.931       .  S
O533        C544   1.278       .  A
O533       Cd538   2.083       .  S
Cd534       O536   1.982       .  S
Cd534       O537   1.986       .  S
Cd535       O539   2.195       .  S
Cd535       O548   2.205       .  S
Cd535       O537   2.034       .  S
O536        C546   1.257       .  A
O537       Cd538   1.985       .  S
Cd538       O540   2.083       .  S
O539        C546   1.294       .  A
C541        O545   1.253       .  A
C541        C557   1.476       .  S
C542        C551   1.501       .  S
C544        C599   1.489       .  S
C546        C643   1.482       .  S
C547        O548   1.294       .  A
C547        C617   1.490       .  S
C549        C801   1.465       .  S
C549        N550   1.359   1_655  A
C549        N554   1.357       .  A
N550        C551   1.355       .  A
C551        N552   1.375       .  A
N552        C553   1.379   1_455  A
C553        N554   1.349       .  A
C555        C684   1.445       .  S
C555        N556   1.356   1_655  A
C555        N560   1.355   1_655  A
N556        C557   1.348       .  A
C557        N558   1.373       .  A
N558        C559   1.372       .  A
C559        N560   1.345       .  A
C561        C696   1.444       .  S
C561        N562   1.345       .  A
C561        N566   1.350       .  A
N562        C563   1.347       .  A
C563        N564   1.381       .  A
N564        C565   1.382       .  A
C565        N566   1.350       .  A
C567        C708   1.447       .  S
C567        N568   1.353   1_565  A
C567        N572   1.355       .  A
N568        C569   1.350       .  A
C569        N570   1.385       .  A
N570        C571   1.375       .  A
C571        N572   1.346   1_545  A
C573        C816   1.458       .  S
C573        N574   1.361   1_655  A
C573        N578   1.359       .  A
N574        C575   1.353       .  A
C575        N576   1.374   1_455  A
N576        C577   1.369       .  A
C577        N578   1.348       .  A
C579        C825   1.460       .  S
C579        N580   1.358   1_655  A
C579        N584   1.344       .  A
N580        C581   1.356       .  A
C581        N582   1.382   1_455  A
N582        C583   1.379       .  A
C583        N584   1.342       .  A
C585        C720   1.455       .  S
C585        N586   1.363       .  A
C585        N590   1.353       .  A
N586        C587   1.355       .  A
C587        N588   1.375       .  A
N588        C589   1.371       .  A
C589        N590   1.341       .  A
C591        C876   1.466       .  S
C591        N592   1.356   1_545  A
C591        N596   1.366       .  A
N592        C593   1.345       .  A
C593        N594   1.373       .  A
N594        C595   1.375   1_565  A
C595        N596   1.358       .  A
C597        C852   1.457       .  S
C597        N598   1.357   1_554  A
C597        N602   1.356       .  A
N598        C599   1.351       .  A
C599        N600   1.367       .  A
N600        C601   1.375   1_556  A
C601        N602   1.350       .  A
C603        C672   1.459       .  S
C603        N604   1.355       .  A
C603        N608   1.358       .  A
N604        C605   1.349       .  A
C605        N606   1.373       .  A
N606        C607   1.383       .  A
C607        N608   1.353       .  A
C609        C924   1.467       .  S
C609        N610   1.358       .  A
C609        N614   1.360       .  A
N610        C611   1.352       .  A
C611        N612   1.364       .  A
N612        C613   1.374       .  A
C613        N614   1.354       .  A
C615        C864   1.464       .  S
C615        N616   1.360       .  A
C615        N620   1.360   1_556  A
N616        C617   1.355       .  A
C617        N618   1.377       .  A
N618        C619   1.373   1_556  A
C619        N620   1.350       .  A
C621        C837   1.464       .  S
C621        N622   1.357       .  A
C621        N626   1.345       .  A
N622        C623   1.356       .  A
C623        N624   1.380       .  A
N624        C625   1.376       .  A
C625        N626   1.341       .  A
C627        C912   1.477       .  S
C627        N628   1.358       .  A
C627        N632   1.359       .  A
N628        C629   1.351       .  A
C629        N630   1.375       .  A
N630        C631   1.381       .  A
C631        N632   1.351       .  A
C633        C792   1.432       .  S
C633        N634   1.342       .  A
C633        N638   1.347       .  A
N634        C635   1.340       .  A
C635        N636   1.378       .  A
N636        C637   1.380       .  A
C637        N638   1.345       .  A
C639        C768   1.451       .  S
C639        N640   1.359       .  A
C639        N644   1.353       .  A
N640        C641   1.353   1_554  A
C641        N642   1.374       .  A
N642        C643   1.379       .  A
C643        N644   1.349   1_556  A
C645        C744   1.461       .  S
C645        N646   1.345       .  A
C645        N650   1.358       .  A
N646        C647   1.345   1_545  A
C647        N648   1.378       .  A
N648        C649   1.383   1_554  A
C649        N650   1.357   1_566  A
C651        C756   1.471       .  S
C651        N652   1.363       .  A
C651        N656   1.356       .  A
N652        C653   1.359   1_455  A
C653        N654   1.384       .  A
N654        C655   1.376       .  A
C655        N656   1.349   1_655  A
C657        C658   1.401       .  A
C657        C662   1.409       .  A
C658        C659   1.391       .  A
C658        H663   1.085       .  S
C659        C660   1.411       .  A
C659        C666   1.445       .  S
C660        C661   1.404       .  A
C661        C662   1.396       .  A
C661        H664   1.086       .  S
C662        C665   1.444       .  S
C665        N667   1.157       .  T
C666        N668   1.157       .  T
C669        C670   1.400       .  A
C669        C674   1.410       .  A
C670        C671   1.394       .  A
C670        H675   1.084       .  S
C671        C672   1.410       .  A
C671        C678   1.445       .  S
C672        C673   1.401       .  A
C673        C674   1.392       .  A
C673        H676   1.084       .  S
C674        C677   1.446       .  S
C677        N679   1.157       .  T
C678        N680   1.157       .  T
C681        C682   1.398       .  A
C681        C686   1.413       .  A
C682        C683   1.383       .  A
C682        H687   1.087       .  S
C683        C684   1.409       .  A
C683        C690   1.447       .  S
C684        C685   1.397       .  A
C685        C686   1.391       .  A
C685        H688   1.088       .  S
C686        C689   1.445       .  S
C689        N691   1.157       .  T
C690        N692   1.157       .  T
C693        C694   1.402       .  A
C693        C698   1.409       .  A
C694        C695   1.388       .  A
C694        H699   1.084       .  S
C695        C696   1.403       .  A
C695        C702   1.446       .  S
C696        C697   1.399       .  A
C697        C698   1.390       .  A
C697        H700   1.085       .  S
C698        C701   1.446       .  S
C701        N703   1.157       .  T
C702        N704   1.157       .  T
C705        C706   1.397       .  A
C705        C710   1.414       .  A
C706        C707   1.384       .  A
C706        H711   1.085       .  S
C707        C708   1.410       .  A
C707        C714   1.447       .  S
C708        C709   1.396       .  A
C709        C710   1.394       .  A
C709        H712   1.086       .  S
C710        C713   1.445       .  S
C713        N715   1.158       .  T
C714        N716   1.157       .  T
C717        C718   1.397       .  A
C717        C722   1.410       .  A
C718        C719   1.387       .  A
C718        H723   1.084       .  S
C719        C720   1.412       .  A
C719        C726   1.446       .  S
C720        C721   1.400       .  A
C721        C722   1.393       .  A
C721        H724   1.084       .  S
C722        C725   1.445       .  S
C725        N727   1.157       .  T
C726        N728   1.157       .  T
C729        C730   1.395       .  A
C729        C734   1.410       .  A
C730        C731   1.393       .  A
C730        H735   1.085       .  S
C731        C732   1.413       .  A
C731        C738   1.446       .  S
C732        C733   1.397       .  A
C733        C734   1.384       .  A
C733        H736   1.085       .  S
C734        C737   1.447       .  S
C737        N739   1.157       .  T
C738        N740   1.157       .  T
C741        C742   1.404       .  A
C741        C746   1.405       .  A
C742        C743   1.394       .  A
C742        H747   1.083       .  S
C743        C744   1.406       .  A
C743        C750   1.444       .  S
C744        C745   1.405       .  A
C745        C746   1.390       .  A
C745        H748   1.084       .  S
C746        C749   1.446       .  S
C749        N751   1.158       .  T
C750        N752   1.157       .  T
C753        C754   1.402   1_545  A
C753        C758   1.410       .  A
C754        C755   1.394       .  A
C754        H759   1.084       .  S
C755        C756   1.412   1_565  A
C755        C762   1.446       .  S
C756        C757   1.403       .  A
C757        C758   1.401       .  A
C757        H760   1.085       .  S
C758        C761   1.444       .  S
C761        N763   1.157       .  T
C762        N764   1.158       .  T
C765        C766   1.410       .  A
C765        C770   1.417       .  A
C766        C767   1.392   1_455  A
C766        H771   1.084   1_455  S
C767        C768   1.400   1_655  A
C767        C774   1.445       .  S
C768        C769   1.398       .  A
C769        C770   1.394       .  A
C769        H772   1.085       .  S
C770        C773   1.445       .  S
C773        N775   1.158       .  T
C774        N776   1.157       .  T
C777        C778   1.405       .  A
C777        C782   1.411       .  A
C778        C779   1.396       .  A
C778        H783   1.083       .  S
C779        C780   1.406       .  A
C779        C786   1.445       .  S
C780        C781   1.400       .  A
C781        C782   1.391       .  A
C781        H784   1.084       .  S
C782        C785   1.445       .  S
C785        N787   1.157       .  T
C786        N788   1.157       .  T
C789        C790   1.399       .  A
C789        C794   1.404       .  A
C790        C791   1.382       .  A
C790        H795   1.085       .  S
C791        C792   1.405       .  A
C791        C798   1.446       .  S
C792        C793   1.399       .  A
C793        C794   1.382       .  A
C793        H796   1.085       .  S
C794        C797   1.446       .  S
C797        N799   1.157       .  T
C798        N800   1.157       .  T
C801        C802   1.405       .  A
C801        C806   1.411       .  A
C802        C803   1.401       .  A
C802        H807   1.082       .  S
C803        C804   1.409       .  A
C803        C810   1.444       .  S
C804        C805   1.401       .  A
C805        C806   1.389       .  A
C805        H808   1.083       .  S
C806        C809   1.447       .  S
C809        N811   1.157       .  T
C810        N812   1.157   1_655  T
C813        C814   1.404       .  A
C813        C818   1.408   1_655  A
C814        C815   1.396       .  A
C814        H819   1.085       .  S
C815        C816   1.409       .  A
C815        C822   1.445       .  S
C816        C817   1.400       .  A
C817        C818   1.389   1_655  A
C817        H820   1.086   1_655  S
C818        C821   1.445       .  S
C821        N823   1.157       .  T
C822        N824   1.158       .  T
C825        C826   1.404       .  A
C825        C830   1.408   1_655  A
C826        C827   1.389       .  A
C826        H831   1.084       .  S
C827        C828   1.407       .  A
C827        C834   1.447       .  S
C828        C829   1.401   1_655  A
C829        C830   1.393       .  A
C829        H832   1.084       .  S
C830        C833   1.444       .  S
C833        N835   1.157       .  T
C834        N836   1.158       .  T
C837        C838   1.410       .  A
C837        C842   1.409       .  A
C838        C839   1.388       .  A
C838        H843   1.084       .  S
C839        C840   1.399       .  A
C839        C846   1.446       .  S
C840        C841   1.401       .  A
C841        C842   1.390       .  A
C841        H844   1.085       .  S
C842        C845   1.444       .  S
C845        N847   1.157       .  T
C846        N848   1.157       .  T
C849        C850   1.402       .  A
C849        C854   1.410       .  A
C850        C851   1.391       .  A
C850        H855   1.085       .  S
C851        C852   1.410       .  A
C851        C858   1.447       .  S
C852        C853   1.401       .  A
C853        C854   1.395       .  A
C853        H856   1.085       .  S
C854        C857   1.444       .  S
C857        N859   1.157       .  T
C858        N860   1.158       .  T
C861        C862   1.402       .  A
C861        C866   1.410       .  A
C862        C863   1.393       .  A
C862        H867   1.084       .  S
C863        C864   1.411       .  A
C863        C870   1.446       .  S
C864        C865   1.401       .  A
C865        C866   1.398       .  A
C865        H868   1.084       .  S
C866        C869   1.444       .  S
C869        N871   1.157       .  T
C870        N872   1.157       .  T
C873        C874   1.399   1_545  A
C873        C878   1.410       .  A
C874        C875   1.389       .  A
C874        H879   1.084       .  S
C875        C876   1.413   1_565  A
C875        C882   1.446       .  S
C876        C877   1.403       .  A
C877        C878   1.399       .  A
C877        H880   1.083       .  S
C878        C881   1.444       .  S
C881        N883   1.157       .  T
C882        N884   1.157       .  T
C885        C886   1.397       .  A
C885        C890   1.414       .  A
C886        C887   1.391       .  A
C886        H891   1.087       .  S
C887        C888   1.413       .  A
C887        C894   1.445       .  S
C888        C889   1.397       .  A
C889        C890   1.386       .  A
C889        H892   1.088       .  S
C890        C893   1.446   1_565  S
C893        N895   1.157       .  T
C894        N896   1.157       .  T
C897        C898   1.402       .  A
C897        C902   1.411       .  A
C898        C899   1.395       .  A
C898        H903   1.084       .  S
C899        C900   1.408       .  A
C899        C906   1.444       .  S
C900        C901   1.401       .  A
C901        C902   1.389       .  A
C901        H904   1.083       .  S
C902        C905   1.447       .  S
C905        N907   1.158       .  T
C906        N908   1.157       .  T
C909        C910   1.396       .  A
C909        C914   1.400       .  A
C910        C911   1.390       .  A
C910        H915   1.085       .  S
C911        C912   1.417       .  A
C911        C918   1.445       .  S
C912        C913   1.412       .  A
C913        C914   1.396       .  A
C913        H916   1.083       .  S
C914        C917   1.445       .  S
C917        N919   1.157       .  T
C918        N920   1.157       .  T
C921        C922   1.401       .  A
C921        C926   1.411       .  A
C922        C923   1.393       .  A
C922        H927   1.085       .  S
C923        C924   1.412       .  A
C923        C930   1.445       .  S
C924        C925   1.403       .  A
C925        C926   1.397       .  A
C925        H928   1.085       .  S
C926        C929   1.444       .  S
C929        N931   1.157       .  T
C930        N932   1.157       .  T
C933        C934   1.405       .  A
C933        C938   1.407       .  A
C934        C935   1.392       .  A
C934        H939   1.085       .  S
C935        C936   1.410       .  A
C935        C942   1.446       .  S
C936        C937   1.406       .  A
C937        C938   1.400       .  A
C937        H940   1.085   1_556  S
C938        C941   1.443   1_556  S
C941        N943   1.157       .  T
C942        N944   1.158       .  T
