geometry optimzed in LAMMPS
_audit_creation_date              2020-11-30 
_audit_creation_method            'lammps2cif' 
_symmetry_space_group_name_H-M    'P1' 
_symmetry_Int_Tables_number       1 
_symmetry_cell_setting            triclinic 
loop_ 
_symmetry_equiv_pos_as_xyz 
  x,y,z 
_cell_length_a                    28.93329922 
_cell_length_b                    27.996514015147504 
_cell_length_c                    29.784905884549044 
_cell_angle_alpha                 90.16721047964427 
_cell_angle_beta                  90.33364995082673 
_cell_angle_gamma                 89.82646901417978 
loop_ 
_atom_site_label 
_atom_site_type_symbol 
_atom_site_fract_x 
_atom_site_fract_y 
_atom_site_fract_z 
_atom_site_charge 
O1          O  0.53544099  0.03123638  0.45104887    -0.72900
O2          O  0.52819868  0.93182417  0.53863543    -0.72900
O3          O  0.52970537  0.93533003  0.44740164    -0.73000
O4          O  0.53410417  0.02750891  0.54163211    -0.73100
O5          O  0.45726048  0.03293404  0.54006655    -0.73000
O6          O  0.45283184  0.93988146  0.44532351    -0.73000
O7          O  0.45137368  0.93671286  0.53785187    -0.72900
O8          O  0.45864036  0.03637531  0.44868218    -0.73000
Ni9        Ni  0.53446081  0.98112574  0.49467360     1.25400
Ni10       Ni  0.45218794  0.98647898  0.49289622     1.25400
C11         C  0.49847606  0.05041202  0.43534867     0.89300
C12         C  0.48890023  0.91913937  0.55420840     0.89200
C13         C  0.49093593  0.92344832  0.42975747     0.89200
C14         C  0.49646488  0.04537753  0.55658847     0.89400
O15         O  0.95053983  0.45381108  0.46560225    -0.72900
O16         O  0.05055376  0.54175859  0.46156478    -0.72900
O17         O  0.04303236  0.44579611  0.46459860    -0.73000
O18         O  0.95765618  0.54860801  0.46245664    -0.73100
O19         O  0.95788993  0.55228951  0.53722161    -0.73000
O20         O  0.04508221  0.44869016  0.53942001    -0.73000
O21         O  0.05147052  0.54498018  0.53637747    -0.72900
O22         O  0.95207236  0.45707594  0.54044341    -0.73000
Ni23       Ni  0.00058387  0.49744551  0.46092443     1.25400
Ni24       Ni  0.00188273  0.50090707  0.54111029     1.25400
C25         C  0.93417350  0.44191531  0.50375581     0.89300
C26         C  0.06737928  0.55803310  0.49835908     0.89200
C27         C  0.05764490  0.42965943  0.50219995     0.89200
C28         C  0.94221170  0.56623457  0.49911190     0.89400
O29         O  0.56332804  0.54229366  0.95867076    -0.72900
O30         O  0.46957781  0.53505054  0.05297895    -0.72900
O31         O  0.56488750  0.54139942  0.05095742    -0.73000
O32         O  0.46795950  0.53733726  0.96008922    -0.73100
O33         O  0.47249425  0.45803355  0.95993664    -0.73000
O34         O  0.56952984  0.46212102  0.04922338    -0.73000
O35         O  0.47524759  0.45589061  0.05138312    -0.72900
O36         O  0.56676982  0.46299049  0.95761982    -0.73000
Ni37       Ni  0.51620632  0.54188386  0.00574703     1.25400
Ni38       Ni  0.52114442  0.45716026  0.00448917     1.25400
C39         C  0.58074939  0.50339499  0.94264395     0.89300
C40         C  0.45694563  0.49386802  0.06785708     0.89200
C41         C  0.58364319  0.50242027  0.06479170     0.89200
C42         C  0.45407074  0.49675277  0.94503963     0.89400
O43         O  0.98107626  0.48779322  0.95048519    -0.72900
O44         O  0.99325098  0.58149537  0.04265153    -0.72900
O45         O  0.99261953  0.58309273  0.95164196    -0.73000
O46         O  0.98267580  0.48574458  0.04108108    -0.73100
O47         O  0.05923105  0.47700927  0.04027249    -0.73000
O48         O  0.06922312  0.57475736  0.95119115    -0.73000
O49         O  0.06982858  0.57297109  0.04318102    -0.72900
O50         O  0.05766796  0.47927205  0.94945354    -0.73000
Ni51       Ni  0.98476660  0.53504120  0.99654892     1.25400
Ni52       Ni  0.06677985  0.52579310  0.99605447     1.25400
C53         C  0.01736494  0.46804360  0.93461703     0.89300
C54         C  0.03297504  0.59211588  0.05892464     0.89200
C55         C  0.03227242  0.59393012  0.93557989     0.89200
C56         C  0.01948916  0.46486939  0.05510916     0.89400
O57         O  0.55869603  0.05846284  0.96570166    -0.72900
O58         O  0.45512948  0.97702384  0.96382583    -0.72900
O59         O  0.46682007  0.07236632  0.96862605    -0.73000
O60         O  0.54756555  0.96462060  0.96158053    -0.73100
O61         O  0.54905357  0.96097602  0.03635857    -0.73000
O62         O  0.46973735  0.06913682  0.04337772    -0.73000
O63         O  0.45633194  0.97351187  0.03860384    -0.72900
O64         O  0.56222093  0.05509360  0.04047140    -0.73000
Ni65       Ni  0.50668777  0.01826620  0.96231873     1.25400
Ni66       Ni  0.50911211  0.01452598  0.04246764     1.25400
C67         C  0.57884621  0.06843970  0.00279093     0.89300
C68         C  0.43883651  0.96127001  0.00064788     0.89200
C69         C  0.45577800  0.08913756  0.00718298     0.89200
C70         C  0.56347207  0.94672725  0.99805023     0.89400
O71         O  0.72988555  0.74659030  0.86392666    -0.79400
O72         O  0.79916497  0.67306960  0.68534018    -0.64100
O73         O  0.78133937  0.75390111  0.78669104    -1.10700
C74         C  0.64400038  0.79826610  0.70895328     1.07500
O75         O  0.78452848  0.73289114  0.63874118    -0.77300
O76         O  0.75921559  0.81903345  0.67112924    -0.64900
Ni77       Ni  0.79095891  0.73005462  0.84566763     1.34900
C78         C  0.76354819  0.84533206  0.70571517     0.86200
O79         O  0.85121477  0.69084747  0.75793806    -0.77800
O80         O  0.85322349  0.71272169  0.83063485    -0.88100
C81         C  0.80180909  0.69179518  0.64675070     0.85800
O82         O  0.76824943  0.66636136  0.83841466    -0.66300
O83         O  0.66784434  0.78870334  0.67397631    -0.85600
C84         C  0.75332844  0.64341905  0.80458913     0.86600
C85         C  0.87262506  0.69697802  0.79511454     1.08200
H86         H  0.70975628  0.70909655  0.71965852     0.40000
O87         O  0.73184621  0.73488106  0.71841654    -1.08200
O88         O  0.74803067  0.83332518  0.74420040    -0.64900
Ni89       Ni  0.72085256  0.77534761  0.76924494     1.26300
O90         O  0.76014887  0.65721871  0.76441292    -0.65100
O91         O  0.65996411  0.79439344  0.74894120    -0.77400
C92         C  0.71324172  0.78832911  0.86186772     0.86000
O93         O  0.71143150  0.81051675  0.82452011    -0.64600
Ni94       Ni  0.72702689  0.76070068  0.65961039     1.27400
Ni95       Ni  0.79097019  0.71168047  0.73752615     1.26100
H96         H  0.80266689  0.78002434  0.78328928     0.40600
O97         O  0.29154517  0.62981750  0.77161732    -0.79400
O98         O  0.19641820  0.81602289  0.68648765    -0.64100
O99         O  0.27899693  0.71694845  0.72527305    -1.10700
C100        C  0.30262274  0.80965903  0.85213922     1.07500
O101        O  0.22998447  0.87801346  0.72008046    -0.77300
O102        O  0.31796077  0.84085517  0.73028386    -0.64900
Ni103      Ni  0.25579271  0.65297455  0.72082158     1.34900
C104        C  0.34876353  0.80910527  0.73738138     0.86200
O105        O  0.23321818  0.74106422  0.64711242    -0.77800
O106        O  0.21990270  0.66587807  0.66693353    -0.88100
C107        C  0.20038453  0.86057426  0.69279917     0.85800
O108        O  0.20450005  0.66697178  0.75898907    -0.66300
O109        O  0.30463004  0.84196417  0.82216449    -0.85600
C110        C  0.17424027  0.69925366  0.75217657     0.86600
C111        C  0.22066290  0.69913255  0.63771467     1.08200
H112        H  0.21591544  0.78879051  0.78183018     0.40000
O113        O  0.24435837  0.79086473  0.76519107    -1.08200
O114        O  0.34224409  0.77435345  0.76446947    -0.64900
Ni115      Ni  0.28620280  0.74180264  0.78459014     1.26300
O116        O  0.18115074  0.73399486  0.72534872    -0.65100
O117        O  0.29031017  0.76747689  0.84328223    -0.77400
C118        C  0.32097822  0.64686900  0.79937200     0.86000
O119        O  0.32666779  0.69150756  0.80428306    -0.64600
Ni120      Ni  0.26741284  0.85483701  0.76946558     1.27400
Ni121      Ni  0.23730106  0.76619587  0.70583803     1.26100
H122        H  0.30742646  0.71895277  0.70861549     0.40600
O123        O  0.78971783  0.25005934  0.64765963    -0.79400
O124        O  0.71461549  0.18296684  0.82277162    -0.64100
O125        O  0.72945985  0.25624758  0.71693520    -1.10700
C126        C  0.85905638  0.31849033  0.79801366     1.07500
O127        O  0.71961211  0.25165008  0.85840338    -0.77300
O128        O  0.74928069  0.33529328  0.83256949    -0.64900
Ni129      Ni  0.72917861  0.22726466  0.65964846     1.34900
C130        C  0.73822079  0.35715653  0.79701994     0.86200
O131        O  0.66471313  0.18894351  0.74490580    -0.77800
O132        O  0.66879326  0.20272536  0.67023156    -0.88100
C133        C  0.71175177  0.20734655  0.85860958     0.85800
O134        O  0.75572721  0.16662811  0.67251960    -0.66300
O135        O  0.83860957  0.30362416  0.83326429    -0.85600
C136        C  0.76621558  0.14490347  0.70836731     0.86600
C137        C  0.64793018  0.18708878  0.70492746     1.08200
H138        H  0.80223222  0.22434133  0.78710589     0.40000
O139        O  0.77757504  0.24767598  0.78740656    -1.08200
O140        O  0.74935493  0.34193646  0.75799139    -0.64900
Ni141      Ni  0.78528452  0.28700900  0.73640817     1.26300
O142        O  0.75683459  0.16181495  0.74705476    -0.65100
O143        O  0.84196008  0.31526237  0.75836926    -0.77400
C144        C  0.79769891  0.29433717  0.64616478     0.86000
O145        O  0.79239366  0.32019682  0.68089172    -0.64600
Ni146      Ni  0.77907110  0.27643644  0.84491506     1.27400
Ni147      Ni  0.72143518  0.21700417  0.76780083     1.26100
H148        H  0.70477112  0.27952865  0.71685897     0.40600
O149        O  0.32795998  0.19408155  0.68022227    -0.79400
O150        O  0.15166652  0.26539183  0.77017113    -0.64100
O151        O  0.27027692  0.26444853  0.71709431    -1.10700
C152        C  0.31814558  0.21348317  0.86064519     1.07500
O153        O  0.17884708  0.30674859  0.82794392    -0.77300
O154        O  0.27044078  0.32403535  0.84018508    -0.64900
Ni155      Ni  0.27972850  0.23664423  0.65960341     1.34900
C156        C  0.30580281  0.33024167  0.81593556     0.86200
O157        O  0.18138435  0.29135932  0.68971271    -0.77800
O158        O  0.23339699  0.27808233  0.63514397    -0.88100
C159        C  0.14541125  0.29352612  0.80274226     0.85800
O160        O  0.23597662  0.18523570  0.66157402    -0.66300
O161        O  0.28245295  0.23574878  0.87487315    -0.85600
C162        C  0.20448898  0.17440161  0.68922562     0.86600
C163        C  0.19549929  0.29580027  0.64954992     1.08200
H164        H  0.23056476  0.20580714  0.79736783     0.40000
O165        O  0.24041646  0.23846825  0.79317897    -1.08200
O166        O  0.31980705  0.29966910  0.78730159    -0.64900
Ni167      Ni  0.30036923  0.23671324  0.76764501     1.26300
O168        O  0.19413940  0.20041230  0.72275336    -0.65100
O169        O  0.32828655  0.20867689  0.81939011    -0.77400
C170        C  0.36271612  0.20536585  0.70449833     0.86000
O171        O  0.35833283  0.23244325  0.73828999    -0.64600
Ni172      Ni  0.23142356  0.27009665  0.84903909     1.27400
Ni173      Ni  0.21006984  0.26425116  0.74187139     1.26100
H174        H  0.27970408  0.29740130  0.71464405     0.40600
O175        O  0.79131905  0.76064671  0.34806670    -0.79400
O176        O  0.72122239  0.82032896  0.16530359    -0.64100
O177        O  0.73685644  0.74883116  0.27345097    -1.10700
C178        C  0.87530120  0.70019309  0.20151554     1.07500
O179        O  0.73329009  0.75187912  0.13020762    -0.77300
O180        O  0.76699781  0.67090835  0.16107270    -0.64900
Ni181      Ni  0.72972003  0.77599822  0.33075528     1.34900
C182        C  0.75566021  0.64921576  0.19660341     0.86200
O183        O  0.66893092  0.81209687  0.24132263    -0.77800
O184        O  0.66834920  0.79340367  0.31505240    -0.88100
C185        C  0.72046664  0.79511525  0.12947807     0.85800
O186        O  0.75101155  0.83875095  0.32023822    -0.66300
O187        O  0.85442966  0.71122695  0.16501360    -0.85600
C188        C  0.76591386  0.86040021  0.28610643     0.86600
C189        C  0.64881050  0.80920506  0.27949866     1.08200
H190        H  0.80987374  0.78606091  0.20694183     0.40000
O191        O  0.78707191  0.76091797  0.20584902    -1.08200
O192        O  0.76539216  0.66530853  0.23574531    -0.64900
Ni193      Ni  0.79591808  0.72308691  0.25814694     1.26300
O194        O  0.76032438  0.84430026  0.24611990    -0.65100
O195        O  0.85588328  0.69998603  0.23998381    -0.77400
C196        C  0.80567631  0.71812596  0.34971187     0.86000
O197        O  0.80379925  0.69152624  0.31500429    -0.64600
Ni198      Ni  0.79340338  0.73186290  0.14895347     1.27400
Ni199      Ni  0.72844636  0.78773107  0.22194140     1.26100
H200        H  0.71428643  0.72355177  0.27147151     0.40600
O201        O  0.25421663  0.87833277  0.28302502    -0.79400
O202        O  0.32487118  0.69154192  0.19333630    -0.64100
O203        O  0.24783592  0.79701430  0.22811046    -1.10700
C204        C  0.21269909  0.71062026  0.35642659     1.07500
O205        O  0.28877325  0.63299169  0.22929693    -0.77300
O206        O  0.20232763  0.67381173  0.23654452    -0.64900
Ni207      Ni  0.26955954  0.86091965  0.22262183     1.34900
C208        C  0.17289007  0.70751930  0.24004988     0.86200
O209        O  0.29685728  0.77032423  0.15139613    -0.77800
O210        O  0.28660471  0.84926714  0.16179381    -0.88100
C211        C  0.31866996  0.64743669  0.20118875     0.85800
O212        O  0.33073707  0.85045288  0.24356390    -0.66300
O213        O  0.21391587  0.67623160  0.32832279    -0.85600
C214        C  0.35645412  0.81388910  0.24598333     0.86600
C215        C  0.29636388  0.81327176  0.13724748     1.08200
H216        H  0.30392282  0.72519458  0.28896621     0.40000
O217        O  0.27607956  0.72317495  0.27096139    -1.08200
O218        O  0.17963285  0.74449621  0.26459425    -0.64900
Ni219      Ni  0.23550437  0.77540727  0.28718945     1.26300
O220        O  0.34424270  0.77289929  0.23210104    -0.65100
O221        O  0.22568518  0.75243159  0.34656958    -0.77400
C222        C  0.21520220  0.87234222  0.30099294     0.86000
O223        O  0.19722367  0.83083141  0.30141400    -0.64600
Ni224      Ni  0.25165684  0.66003978  0.27712510     1.27400
Ni225      Ni  0.28728152  0.74531356  0.21061293     1.26100
H226        H  0.21992333  0.79504941  0.21016321     0.40600
O227        O  0.72812575  0.23771475  0.13787778    -0.79400
O228        O  0.80937694  0.32894441  0.31190172    -0.64100
O229        O  0.78595663  0.24558953  0.21340190    -1.10700
C230        C  0.65729549  0.19900376  0.30210503     1.07500
O231        O  0.79917965  0.26927900  0.35899152    -0.77300
O232        O  0.76853769  0.18212353  0.33642922    -0.64900
Ni233      Ni  0.78479841  0.26977852  0.15349509     1.34900
C234        C  0.77450706  0.15569937  0.30227206     0.86200
O235        O  0.85608077  0.30945167  0.23668105    -0.77800
O236        O  0.84234180  0.30296510  0.16255831    -0.88100
C237        C  0.81153027  0.31191137  0.35113152     0.85800
O238        O  0.75003806  0.32655205  0.16450956    -0.66300
O239        O  0.67976736  0.21507932  0.33587099    -0.85600
C240        C  0.74855500  0.35443394  0.19811962     0.86600
C241        C  0.86784414  0.31488153  0.19585529     1.08200
H242        H  0.71809121  0.29090602  0.28237153     0.40000
O243        O  0.74100908  0.26583186  0.28444445    -1.08200
O244        O  0.76195733  0.16798925  0.26300997    -0.64900
Ni245      Ni  0.72927747  0.22176128  0.23721227     1.26300
O246        O  0.76716628  0.34417214  0.23575531    -0.65100
O247        O  0.67224708  0.19991417  0.26199800    -0.77400
C248        C  0.71520052  0.19586253  0.14848047     0.86000
O249        O  0.71904906  0.18040216  0.18801501    -0.64600
Ni250      Ni  0.73973275  0.24289282  0.34483825     1.27400
Ni251      Ni  0.79843619  0.28891055  0.26131515     1.26100
H252        H  0.80912542  0.22067284  0.21433758     0.40600
O253        O  0.93704818  0.95896083  0.45990400    -0.72900
O254        O  0.03525429  0.96543206  0.55027661    -0.72900
O255        O  0.94014850  0.95878237  0.55252164    -0.73000
O256        O  0.03124982  0.96425541  0.45842446    -0.73100
O257        O  0.02663465  0.04363070  0.45858931    -0.73000
O258        O  0.93560254  0.03810309  0.55259169    -0.73000
O259        O  0.02969511  0.04467825  0.54944076    -0.72900
O260        O  0.93313309  0.03828868  0.46095041    -0.73000
Ni261      Ni  0.98601074  0.95897305  0.50540394     1.25400
Ni262      Ni  0.98098391  0.04380861  0.50548812     1.25400
C263        C  0.91955799  0.99816992  0.44482598     0.89300
C264        C  0.04934436  0.00663063  0.56399930     0.89200
C265        C  0.92262361  0.99754910  0.56818347     0.89200
C266        C  0.04410722  0.00479859  0.44300732     0.89400
C267        C  0.13149544  0.96667716  0.35371306     0.04600
C268        C  0.14993546  0.01176023  0.34175820    -0.11500
C269        C  0.13464734  0.05389009  0.36308482     0.02100
C270        C  0.10015304  0.05090842  0.39590824    -0.10000
C271        C  0.07998603  0.00692799  0.40723091     0.04600
C272        C  0.09573334  0.96507096  0.38558453    -0.09500
H273        H  0.17702732  0.01421314  0.31698080     0.10200
H274        H  0.08945722  0.08320629  0.41316486     0.07800
H275        H  0.08113495  0.93082080  0.39451274     0.07600
O276        O  0.18574911  0.30257615  0.17326738    -0.79400
O277        O  0.35001745  0.22434578  0.29151941    -0.64100
O278        O  0.24271867  0.23445585  0.21675268    -1.10700
C279        C  0.17345249  0.28797188  0.35223897     1.07500
O280        O  0.30808917  0.18760055  0.34299386    -0.77300
O281        O  0.21618192  0.18041203  0.34621342    -0.64900
Ni282      Ni  0.24208738  0.26702323  0.16094474     1.34900
C283        C  0.19144915  0.16737505  0.31312965     0.86200
O284        O  0.33387408  0.20447563  0.20463718    -0.77800
O285        O  0.29725827  0.23396768  0.14355609    -0.88100
C286        C  0.34677778  0.19669737  0.32530520     0.85800
O287        O  0.27878110  0.32087692  0.17713600    -0.66300
O288        O  0.20973696  0.27280038  0.37212389    -0.85600
C289        C  0.31147999  0.32645833  0.20527187     0.86600
C290        C  0.33033988  0.21111490  0.16247047     1.08200
H291        H  0.26781287  0.29200296  0.30124679     0.40000
O292        O  0.25929057  0.25892249  0.29719609    -1.08200
O293        O  0.18668922  0.19265628  0.27782789    -0.64900
Ni294      Ni  0.20365251  0.25801853  0.26294693     1.26300
O295        O  0.32119486  0.29564383  0.23580987    -0.65100
O296        O  0.16570826  0.28323427  0.31033325    -0.77400
C297        C  0.14906864  0.28847996  0.19278782     0.86000
O298        O  0.15078878  0.25926042  0.22507044    -0.64600
Ni299      Ni  0.25890855  0.23137087  0.35543121     1.27400
Ni300      Ni  0.29788645  0.23191421  0.25186339     1.26100
H301        H  0.23408864  0.20184996  0.21004074     0.40600
C302        C  0.97029153  0.37162713  0.13380675     0.04600
C303        C  0.01104393  0.34983120  0.14974225    -0.11500
C304        C  0.05465480  0.36566156  0.13510814     0.02100
C305        C  0.05667881  0.40387104  0.10480888    -0.10000
C306        C  0.01631853  0.42583866  0.08842420     0.04600
C307        C  0.97321848  0.40920849  0.10294131    -0.09500
H308        H  0.00813126  0.31958368  0.17190186     0.10200
H309        H  0.09010465  0.41616075  0.09344989     0.07800
H310        H  0.94171155  0.42525131  0.09004042     0.07600
C311        C  0.37866684  0.19261449  0.97376070     0.04600
C312        C  0.40634382  0.15144624  0.97113879    -0.11500
C313        C  0.42704966  0.13250097  0.01002601     0.02100
C314        C  0.41960684  0.15483176  0.05172638    -0.10000
C315        C  0.39246491  0.19617003  0.05426481     0.04600
C316        C  0.37339887  0.21543314  0.01516655    -0.09500
H317        H  0.41110417  0.13326685  0.93947750     0.10200
H318        H  0.43466274  0.14011906  0.08206939     0.07800
H319        H  0.35151712  0.24688360  0.01754579     0.07600
C320        C  0.55156633  0.14352534  0.35890079     0.04600
C321        C  0.51245282  0.16153816  0.33669895    -0.11500
C322        C  0.46830572  0.14495045  0.34717806     0.02100
C323        C  0.46354158  0.10790373  0.37903398    -0.10000
C324        C  0.50257137  0.08923471  0.40151056     0.04600
C325        C  0.54635063  0.10809465  0.39158529    -0.09500
H326        H  0.51604190  0.19030361  0.31271186     0.10200
H327        H  0.42977850  0.09334829  0.38616557     0.07800
H328        H  0.57678668  0.09496442  0.40903148     0.07600
C329        C  0.83381159  0.95881879  0.35179150     0.04600
C330        C  0.86696155  0.95671992  0.38712963    -0.11500
C331        C  0.88383173  0.99868207  0.40785546     0.02100
C332        C  0.86621712  0.04285171  0.39299744    -0.10000
C333        C  0.83339011  0.04600036  0.35822858     0.04600
C334        C  0.81762589  0.00382775  0.33730002    -0.09500
H335        H  0.87912208  0.92228206  0.39884369     0.10200
H336        H  0.87781228  0.07558819  0.40890965     0.07800
H337        H  0.79060623  0.00586737  0.31210180     0.07600
C338        C  0.68177606  0.14452006  0.03429542     0.04600
C339        C  0.70335289  0.14764170  0.99261553    -0.11500
C340        C  0.68431605  0.12518342  0.95485533     0.02100
C341        C  0.64526656  0.09712053  0.95932681    -0.10000
C342        C  0.62267160  0.09420232  0.00076695     0.04600
C343        C  0.64116717  0.11753882  0.03847910    -0.09500
H344        H  0.73352013  0.17015816  0.98878459     0.10200
H345        H  0.63065266  0.08051633  0.92955348     0.07800
H346        H  0.62271451  0.11665558  0.06997165     0.07600
C347        C  0.68071529  0.54674308  0.14397041     0.04600
C348        C  0.64318071  0.54653116  0.11310188    -0.11500
C349        C  0.62241399  0.50339801  0.09874449     0.02100
C350        C  0.64047817  0.46020547  0.11546599    -0.10000
C351        C  0.67798891  0.45919554  0.14576121     0.04600
C352        C  0.69757069  0.50271380  0.16038003    -0.09500
H353        H  0.63078410  0.58010455  0.09954500     0.10200
H354        H  0.62589397  0.42665896  0.10404862     0.07800
H355        H  0.72783103  0.50224723  0.18186702     0.07600
C356        C  0.83923354  0.35698761  0.46960370     0.04600
C357        C  0.81748963  0.35035517  0.51089801    -0.11500
C358        C  0.83398696  0.37332651  0.54971150     0.02100
C359        C  0.87098557  0.40464067  0.54676971    -0.10000
C360        C  0.89353278  0.41109141  0.50575440     0.04600
C361        C  0.87760370  0.38728863  0.46720604    -0.09500
H362        H  0.78849721  0.32604227  0.51317341     0.10200
H363        H  0.88363327  0.42194131  0.57702871     0.07800
H364        H  0.89615584  0.39109454  0.43599345     0.07600
C365        C  0.36877456  0.52357050  0.16161996     0.04600
C366        C  0.40192655  0.52930842  0.12696515    -0.11500
C367        C  0.42101595  0.48901666  0.10451255     0.02100
C368        C  0.40517721  0.44294771  0.11702975    -0.10000
C369        C  0.37293765  0.43646704  0.15193602     0.04600
C370        C  0.35575615  0.47694243  0.17410541    -0.09500
H371        H  0.41292644  0.56469037  0.11738966     0.10200
H372        H  0.41776334  0.41167958  0.09936050     0.07800
H373        H  0.32985775  0.47214832  0.19984135     0.07600
C374        C  0.99332296  0.67632413  0.15000705     0.04600
C375        C  0.99452328  0.64895812  0.11085944    -0.11500
C376        C  0.03506991  0.62573710  0.09737090     0.02100
C377        C  0.07570735  0.63258868  0.12260405    -0.10000
C378        C  0.07562248  0.66163322  0.16138049     0.04600
C379        C  0.03369102  0.68265050  0.17555284    -0.09500
H380        H  0.96289970  0.64463461  0.09156451     0.10200
H381        H  0.10734171  0.61490529  0.11242174     0.07800
H382        H  0.03204732  0.70373345  0.20599660     0.07600
C383        C  0.34187482  0.87957835  0.03538314     0.04600
C384        C  0.37805734  0.91255657  0.03764564    -0.11500
C385        C  0.39985189  0.92788660  0.99859759     0.02100
C386        C  0.38438148  0.91086791  0.95697818    -0.10000
C387        C  0.34834989  0.87799070  0.95416136     0.04600
C388        C  0.32720643  0.86163521  0.99361510    -0.09500
H389        H  0.38919889  0.92621688  0.07003484     0.10200
H390        H  0.40057837  0.92297400  0.92631895     0.07800
H391        H  0.29819336  0.83733705  0.99181899     0.07600
C392        C  0.53553664  0.84576360  0.33560591     0.04600
C393        C  0.49641971  0.84106862  0.30809458    -0.11500
C394        C  0.45405338  0.86103538  0.32171237     0.02100
C395        C  0.45185579  0.88711071  0.36214656    -0.10000
C396        C  0.49114327  0.89222167  0.38958098     0.04600
C397        C  0.53247371  0.87043688  0.37633733    -0.09500
H398        H  0.49905796  0.82179109  0.27665106     0.10200
H399        H  0.41959851  0.90381572  0.37193918     0.07800
H400        H  0.56312157  0.87373908  0.39724209     0.07600
C401        C  0.15633623  0.64526905  0.45552650     0.04600
C402        C  0.11980504  0.61256696  0.45665656    -0.11500
C403        C  0.10564294  0.59237569  0.49719286     0.02100
C404        C  0.12865868  0.60463657  0.53687214    -0.10000
C405        C  0.16485203  0.63742588  0.53667139     0.04600
C406        C  0.17866595  0.65830005  0.49590402    -0.09500
H407        H  0.10266564  0.60246229  0.42560470     0.10200
H408        H  0.11842814  0.58856739  0.56836604     0.07800
H409        H  0.20801590  0.68215859  0.49534487     0.07600
C410        C  0.66239245  0.86904982  0.03617652     0.04600
C411        C  0.62298525  0.89773115  0.03657479    -0.11500
C412        C  0.60155163  0.91193912  0.99642490     0.02100
C413        C  0.61982772  0.89686042  0.95518348    -0.10000
C414        C  0.65902697  0.86755104  0.95382888     0.04600
C415        C  0.68071692  0.85425076  0.99458046    -0.09500
H416        H  0.60935560  0.90951350  0.06858939     0.10200
H417        H  0.60368212  0.90800115  0.92398559     0.07800
H418        H  0.71234416  0.83356153  0.99386228     0.07600
C419        C  0.12359192  0.32174905  0.46129595     0.04600
C420        C  0.15026865  0.31098747  0.49899166    -0.11500
C421        C  0.14689081  0.33816370  0.53805689     0.02100
C422        C  0.11550328  0.37633036  0.54009869    -0.10000
C423        C  0.08902727  0.38822507  0.50191090     0.04600
C424        C  0.09335577  0.36070802  0.46242865    -0.09500
H425        H  0.17478695  0.28158853  0.49762540     0.10200
H426        H  0.11319715  0.39769166  0.57039586     0.07800
H427        H  0.07307898  0.36919617  0.43280375     0.07600
C428        C  0.96527536  0.37808340  0.85313409     0.04600
C429        C  0.00562546  0.35837018  0.83431484    -0.11500
C430        C  0.04944741  0.37494546  0.84819397     0.02100
C431        C  0.05230285  0.41200979  0.87964787    -0.10000
C432        C  0.01270448  0.43148062  0.89903910     0.04600
C433        C  0.96919857  0.41432218  0.88563099    -0.09500
H434        H  0.00258529  0.32928184  0.81058760     0.10200
H435        H  0.08599033  0.42474759  0.89029681     0.07800
H436        H  0.93819695  0.42856185  0.90100422     0.07600
C437        C  0.14457452  0.97908278  0.65143764     0.04600
C438        C  0.10825695  0.97219916  0.61990610    -0.11500
C439        C  0.08898170  0.01173515  0.59659716     0.02100
C440        C  0.10802708  0.05767023  0.60444826    -0.10000
C441        C  0.14363255  0.06479592  0.63605164     0.04600
C442        C  0.16104572  0.02542944  0.65942163    -0.09500
H443        H  0.09454263  0.93677842  0.61415465     0.10200
H444        H  0.09496384  0.08831141  0.58616312     0.07800
H445        H  0.18934428  0.03068532  0.68293010     0.07600
C446        C  0.54348057  0.13117846  0.64417509     0.04600
C447        C  0.54119913  0.09708156  0.60971880    -0.11500
C448        C  0.49850775  0.08079027  0.59339299     0.02100
C449        C  0.45782127  0.09938063  0.61170708    -0.10000
C450        C  0.45920477  0.13414724  0.64566243     0.04600
C451        C  0.50239913  0.14969847  0.66225981    -0.09500
H452        H  0.57300569  0.08374816  0.59518670     0.10200
H453        H  0.42468196  0.08740786  0.59884827     0.07800
H454        H  0.50457258  0.17779625  0.68709452     0.07600
C455        C  0.36685461  0.52685394  0.85004182     0.04600
C456        C  0.40087573  0.53306787  0.88425595    -0.11500
C457        C  0.41636578  0.49332213  0.91013814     0.02100
C458        C  0.39586673  0.44832032  0.90217240    -0.10000
C459        C  0.36286511  0.44179216  0.86812048     0.04600
C460        C  0.34919069  0.48085967  0.84216024    -0.09500
H461        H  0.41575831  0.56794971  0.89013924     0.10200
H462        H  0.40589247  0.41776673  0.92228832     0.07800
H463        H  0.32283271  0.47561143  0.81659741     0.07600
C464        C  0.83350014  0.95067827  0.65291905     0.04600
C465        C  0.86885216  0.95210978  0.62022879    -0.11500
C466        C  0.88665482  0.99579004  0.60440873     0.02100
C467        C  0.86821887  0.03840811  0.62193121    -0.10000
C468        C  0.83303208  0.03833301  0.65441387     0.04600
C469        C  0.81615383  0.99425890  0.67029805    -0.09500
H470        H  0.88169536  0.91890698  0.60620388     0.10200
H471        H  0.88048090  0.07233208  0.60931947     0.07800
H472        H  0.78745330  0.99407001  0.69341644     0.07600
C473        C  0.99336934  0.67757866  0.84370593     0.04600
C474        C  0.03353136  0.68186510  0.81765223    -0.11500
C475        C  0.07516625  0.65973187  0.83181451     0.02100
C476        C  0.07495893  0.63200889  0.87131806    -0.10000
C477        C  0.03458709  0.62720806  0.89703426     0.04600
C478        C  0.99451353  0.65125233  0.88338672    -0.09500
H479        H  0.03190896  0.70208746  0.78679954     0.10200
H480        H  0.10617502  0.61344203  0.88159500     0.07800
H481        H  0.96314787  0.64819639  0.90292151     0.07600
C482        C  0.53115535  0.83849109  0.64831876     0.04600
C483        C  0.49039004  0.83163494  0.67326590    -0.11500
C484        C  0.44776108  0.85090623  0.65782649     0.02100
C485        C  0.44725108  0.87818074  0.61795273    -0.10000
C486        C  0.48782838  0.88583293  0.59322779     0.04600
C487        C  0.52911053  0.86487431  0.60841034    -0.09500
H488        H  0.49211515  0.81131638  0.70404392     0.10200
H489        H  0.41517447  0.89432709  0.60662018     0.07800
H490        H  0.56063749  0.87018093  0.58958987     0.07600
C491        C  0.67539564  0.54629679  0.86033837     0.04600
C492        C  0.68897495  0.50228826  0.84137240    -0.11500
C493        C  0.66841882  0.45926724  0.85473434     0.02100
C494        C  0.63304854  0.46065710  0.88725633    -0.10000
C495        C  0.61770714  0.50407342  0.90667882     0.04600
C496        C  0.63956909  0.54678181  0.89284454    -0.09500
H497        H  0.71801052  0.50098010  0.81873433     0.10200
H498        H  0.61805396  0.42726037  0.89816136     0.07800
H499        H  0.62950147  0.58038362  0.90808307     0.07600
C500        C  0.85070182  0.64561403  0.44903388     0.04600
C501        C  0.83295976  0.66844037  0.48730887    -0.11500
C502        C  0.85016593  0.65783365  0.53025826     0.02100
C503        C  0.88643875  0.62441766  0.53466966    -0.10000
C504        C  0.90463777  0.60178302  0.49628000     0.04600
C505        C  0.88573582  0.61203993  0.45385936    -0.09500
H506        H  0.80497332  0.69400386  0.48381410     0.10200
H507        H  0.90089314  0.61661134  0.56744101     0.07800
H508        H  0.89892225  0.59467946  0.42395635     0.07600
C509        C  0.13928541  0.31191834  0.38068510    -0.14900
C510        C  0.13134228  0.29259495  0.42099737    -0.30100
H511        H  0.12914087  0.34836358  0.37295354     0.14100
H512        H  0.14302207  0.25609242  0.42684894     0.14700
C513        C  0.33915639  0.37133140  0.20131755    -0.14900
C514        C  0.35234344  0.38807904  0.16048278    -0.30100
H515        H  0.34815963  0.39089309  0.23163612     0.14100
H516        H  0.34648284  0.36557433  0.13120647     0.14700
C517        C  0.42814366  0.16846274  0.32500223    -0.14900
C518        C  0.38713755  0.17242151  0.34519681    -0.30100
H519        H  0.43322874  0.18558068  0.29269816     0.14100
H520        H  0.38221315  0.15673535  0.37810835     0.14700
C521        C  0.36591954  0.19170469  0.13267904    -0.14900
C522        C  0.37818730  0.21784337  0.09702248    -0.30100
H523        H  0.37579575  0.15444026  0.13594551     0.14100
H524        H  0.36707893  0.25502875  0.09570164     0.14700
C525        C  0.10355339  0.30830448  0.17986676    -0.14900
C526        C  0.09917686  0.34299468  0.14895448    -0.30100
H527        H  0.07374371  0.29462587  0.19740208     0.14100
H528        H  0.13034867  0.35614851  0.13302809     0.14700
C529        C  0.16751761  0.12038064  0.31622134    -0.14900
C530        C  0.15808929  0.10067932  0.35650862    -0.30100
H531        H  0.15660346  0.10246009  0.28557838     0.14100
H532        H  0.16572036  0.12107844  0.38675734     0.14700
C533        C  0.82989250  0.34136234  0.38788092    -0.14900
C534        C  0.82318026  0.32862290  0.43077196    -0.30100
H535        H  0.84652496  0.37484792  0.37956752     0.14100
H536        H  0.80340769  0.29658473  0.43794481     0.14700
C537        C  0.72540576  0.40171850  0.19278360    -0.14900
C538        C  0.69883002  0.41164356  0.15654494    -0.30100
H539        H  0.73097760  0.42867569  0.21849764     0.14100
H540        H  0.69177956  0.38297213  0.13280559     0.14700
C541        C  0.70007840  0.17447139  0.07085343    -0.14900
C542        C  0.69389368  0.16512958  0.11439902    -0.30100
H543        H  0.72142694  0.20468597  0.06133945     0.14100
H544        H  0.67569404  0.13332535  0.12511100     0.14700
C545        C  0.79596888  0.10779489  0.30846409    -0.14900
C546        C  0.81322468  0.09394270  0.34850984    -0.30100
H547        H  0.79720502  0.08362412  0.27991453     0.14100
H548        H  0.81368800  0.11964030  0.37594105     0.14700
C549        C  0.59798912  0.16337073  0.35039798    -0.14900
C550        C  0.61126250  0.17833448  0.30961129    -0.30100
H551        H  0.62242721  0.16424554  0.37824602     0.14100
H552        H  0.58848427  0.17384634  0.28079027     0.14700
C553        C  0.91376688  0.33541286  0.18644292    -0.14900
C554        C  0.92404046  0.35316722  0.14575578    -0.30100
H555        H  0.93927451  0.33633943  0.21333430     0.14100
H556        H  0.89709900  0.35542878  0.12024813     0.14700
C557        C  0.17288077  0.66013548  0.41081135    -0.14900
C558        C  0.19494237  0.70119856  0.40202354    -0.30100
H559        H  0.16568628  0.63567817  0.38323320     0.14100
H560        H  0.20011807  0.72774668  0.42821145     0.14700
C561        C  0.41155770  0.85662165  0.29421505    -0.14900
C562        C  0.40221233  0.81888597  0.26755031    -0.30100
H563        H  0.38517218  0.88384609  0.29908444     0.14100
H564        H  0.42652174  0.78940708  0.26490226     0.14700
C565        C  0.30960733  0.82270738  0.09034761    -0.14900
C566        C  0.31865184  0.86764651  0.07749834    -0.30100
H567        H  0.31633819  0.79292367  0.06782644     0.14100
H568        H  0.31478580  0.89684797  0.10134167     0.14700
C569        C  0.11960989  0.66725805  0.18693759    -0.14900
C570        C  0.12847797  0.70364607  0.21543298    -0.30100
H571        H  0.14651172  0.64088767  0.18081173     0.14100
H572        H  0.10319724  0.73181972  0.22042438     0.14700
C573        C  0.34704623  0.61121085  0.17613908    -0.14900
C574        C  0.34488785  0.56400826  0.18575993    -0.30100
H575        H  0.36916924  0.62369782  0.14939133     0.14100
H576        H  0.32228998  0.55359475  0.21304145     0.14700
C577        C  0.19413978  0.91531454  0.32232257    -0.14900
C578        C  0.14965098  0.92058338  0.33451589    -0.30100
H579        H  0.21723935  0.94551303  0.32645106     0.14100
H580        H  0.12657612  0.89014265  0.33203504     0.14700
C581        C  0.82462175  0.70262549  0.39285790    -0.14900
C582        C  0.83406927  0.65740978  0.40340995    -0.30100
H583        H  0.82938370  0.73039103  0.41805621     0.14100
H584        H  0.83166600  0.62949525  0.37808047     0.14700
C585        C  0.73005026  0.60304570  0.19150251    -0.14900
C586        C  0.70502261  0.59300465  0.15385974    -0.30100
H587        H  0.73097783  0.57777572  0.21906225     0.15900
H588        H  0.70178400  0.62062821  0.12845581     0.14700
C589        C  0.70365442  0.81307892  0.08594337    -0.14900
C590        C  0.68311895  0.85538373  0.08007416    -0.30100
H591        H  0.70644216  0.78865065  0.05767396     0.14100
H592        H  0.67755716  0.87844758  0.10897644     0.14700
C593        C  0.60042516  0.82556839  0.28412178    -0.14900
C594        C  0.58015106  0.82367161  0.32468848    -0.30100
H595        H  0.58260755  0.84146156  0.25562538     0.14100
H596        H  0.59923534  0.80958533  0.35329393     0.14700
C597        C  0.79091274  0.90619417  0.29501504    -0.14900
C598        C  0.81245701  0.91329599  0.33526303    -0.30100
H599        H  0.79149747  0.93353045  0.26927176     0.14100
H600        H  0.81409401  0.88352017  0.35857970     0.14700
C601        C  0.92472022  0.68692540  0.19832240    -0.14900
C602        C  0.94897423  0.69881485  0.16163328    -0.30100
H603        H  0.94057142  0.66564250  0.22471864     0.14100
H604        H  0.93236056  0.71932619  0.13510430     0.14700
C605        C  0.33180236  0.37536082  0.82116617    -0.14900
C606        C  0.33998342  0.39472385  0.86197026    -0.30100
H607        H  0.34564413  0.39219948  0.79132952     0.14100
H608        H  0.33002325  0.37522974  0.89188737     0.14700
C609        C  0.40858638  0.18512257  0.69450559    -0.14900
C610        C  0.41442658  0.15503899  0.65979554    -0.30100
H611        H  0.43724555  0.19526299  0.71604125     0.14100
H612        H  0.38426988  0.14515175  0.63992950     0.14700
C613        C  0.17934494  0.12879593  0.68312530    -0.14900
C614        C  0.16509250  0.11279367  0.64251274    -0.30100
H615        H  0.17115728  0.10848689  0.71305439     0.14100
H616        H  0.16924517  0.13546339  0.61327170     0.14700
C617        C  0.09389907  0.35365105  0.83392428    -0.14900
C618        C  0.09890506  0.31329836  0.81013461    -0.30100
H619        H  0.12504577  0.37142298  0.84584738     0.14100
H620        H  0.06947292  0.29448218  0.79612840     0.14700
C621        C  0.16554441  0.32127737  0.61736957    -0.14900
C622        C  0.17888444  0.32615711  0.57468047    -0.30100
H623        H  0.13093506  0.33176900  0.62748221     0.14100
H624        H  0.21296848  0.31374505  0.56469087     0.14700
C625        C  0.34986952  0.19301762  0.89411264    -0.14900
C626        C  0.35105753  0.21138642  0.93578008    -0.30100
H627        H  0.37262050  0.16426935  0.88382193     0.14100
H628        H  0.32894866  0.24190544  0.94309738     0.14700
C629        C  0.81312965  0.31315849  0.60339216    -0.14900
C630        C  0.81735110  0.35953528  0.59430961    -0.30100
H631        H  0.82063052  0.28684858  0.57745941     0.14100
H632        H  0.81266750  0.38637753  0.62032537     0.14700
C633        C  0.71234998  0.40303590  0.80266229    -0.14900
C634        C  0.68788746  0.41188144  0.84066454    -0.30100
H635        H  0.71499193  0.43000083  0.77670707     0.14100
H636        H  0.68319207  0.38274130  0.86423118     0.14700
C637        C  0.78980969  0.09753392  0.70399834    -0.14900
C638        C  0.81067435  0.08516419  0.66508525    -0.30100
H639        H  0.79001436  0.07313829  0.73226764     0.14100
H640        H  0.81241121  0.11185208  0.63870571     0.14700
C641        C  0.60172491  0.16585879  0.69753773    -0.14900
C642        C  0.58932918  0.15071370  0.65620823    -0.30100
H643        H  0.57833348  0.16207010  0.72567440     0.14100
H644        H  0.61468331  0.15148140  0.62940640     0.14700
C645        C  0.69882134  0.18669027  0.90127680    -0.14900
C646        C  0.69822542  0.13994574  0.90977114    -0.30100
H647        H  0.69098259  0.21198246  0.92802097     0.14100
H648        H  0.70355661  0.11367849  0.88336934     0.14700
C649        C  0.90534984  0.34017318  0.80371898    -0.14900
C650        C  0.91880205  0.35809721  0.84371063    -0.30100
H651        H  0.92813916  0.34207069  0.77493655     0.14100
H652        H  0.89405089  0.35930623  0.87102446     0.14700
C653        C  0.20427115  0.68974620  0.59170549    -0.14900
C654        C  0.18794473  0.64686326  0.57998004    -0.30100
H655        H  0.20334103  0.71913019  0.56796790     0.14100
H656        H  0.18717776  0.61852144  0.60485930     0.14700
C657        C  0.39438431  0.81264015  0.71451075    -0.14900
C658        C  0.40308892  0.84567869  0.68267347    -0.30100
H659        H  0.42070621  0.78669846  0.72357481     0.14100
H660        H  0.37519048  0.86970780  0.67304793     0.14700
C661        C  0.11923950  0.66274574  0.80596792    -0.14900
C662        C  0.12894818  0.69676261  0.77543995    -0.30100
H663        H  0.14584781  0.63657693  0.81394212     0.14100
H664        H  0.10389385  0.72460338  0.76812672     0.14700
C665        C  0.34864453  0.61321116  0.82803717    -0.14900
C666        C  0.34719003  0.56561055  0.82079481    -0.30100
H667        H  0.36836432  0.62752835  0.85606858     0.14100
H668        H  0.32696509  0.55339314  0.79212565     0.14700
C669        C  0.31648452  0.82107084  0.89846529    -0.14900
C670        C  0.33231530  0.86453583  0.90896930    -0.30100
H671        H  0.31428128  0.79346101  0.92391014     0.14100
H672        H  0.33646274  0.89097456  0.88262653     0.14700
C673        C  0.17004555  0.89378045  0.66675142    -0.14900
C674        C  0.16748473  0.94037146  0.67790531    -0.30100
H675        H  0.15128007  0.88020305  0.63777916     0.14100
H676        H  0.18687285  0.95206412  0.70731130     0.14700
C677        C  0.82684823  0.66592420  0.61079526    -0.14900
C678        C  0.82972261  0.68373971  0.56897998    -0.30100
H679        H  0.84119381  0.63098027  0.61839258     0.14100
H680        H  0.81327146  0.71785744  0.56178975     0.14700
C681        C  0.72656364  0.59870543  0.81228146    -0.14900
C682        C  0.70154960  0.59131623  0.85015187    -0.30100
H683        H  0.72551395  0.57273563  0.78519605     0.14100
H684        H  0.69994943  0.61979282  0.87497310     0.14700
C685        C  0.59527011  0.81475357  0.70212074    -0.14900
C686        C  0.57681960  0.81725401  0.66039949    -0.30100
H687        H  0.57515402  0.82607908  0.73094242     0.14100
H688        H  0.59831769  0.80714040  0.63209789     0.14700
C689        C  0.69554959  0.80812319  0.90435374    -0.14900
C690        C  0.67653495  0.85141979  0.90939044    -0.30100
H691        H  0.69823659  0.78479731  0.93335575     0.14100
H692        H  0.67112212  0.87396647  0.88018438     0.14700
C693        C  0.78700586  0.89261284  0.70046019    -0.14900
C694        C  0.81202819  0.90321799  0.66341169    -0.30100
H695        H  0.78354998  0.91873931  0.72722257     0.14100
H696        H  0.81716703  0.87517313  0.63860920     0.14700
C697        C  0.92239769  0.68442049  0.79765263    -0.14900
C698        C  0.94903525  0.70039092  0.83165343    -0.30100
H699        H  0.93663636  0.65976704  0.77307498     0.14100
H700        H  0.93411635  0.72404341  0.85671737     0.14700
loop_ 
_geom_bond_atom_site_label_1 
_geom_bond_atom_site_label_2 
_geom_bond_distance 
_geom_bond_site_symmetry_2 
_ccdc_geom_bond_type 
O1           Ni9   1.915   1_545  S
O1           C11   1.282       .  A
O2           Ni9   1.915       .  S
O2           C12   1.282       .  A
O3           Ni9   1.906       .  S
O3           C13   1.280       .  A
O4           Ni9   1.906   1_545  S
O4           C14   1.279       .  A
O5          Ni10   1.917   1_545  S
O5           C14   1.283       .  A
O6          Ni10   1.923       .  S
O6           C13   1.282       .  A
O7          Ni10   1.935       .  S
O7           C12   1.285       .  A
O8          Ni10   1.933   1_545  S
O8           C11   1.284       .  A
Ni9         Ni10   2.385       .  S
C11         C324   1.490       .  S
C12         C486   1.493       .  S
C13         C396   1.480       .  S
C14         C448   1.477       .  S
O15         Ni23   1.903   1_655  S
O15          C25   1.279       .  A
O16         Ni23   1.908       .  S
O16          C26   1.280       .  A
O17         Ni23   1.897       .  S
O17          C27   1.278       .  A
O18         Ni23   1.894   1_655  S
O18          C28   1.279       .  A
O19         Ni24   1.921   1_655  S
O19          C28   1.281       .  A
O20         Ni24   1.921       .  S
O20          C27   1.283       .  A
O21         Ni24   1.901       .  S
O21          C26   1.280       .  A
O22         Ni24   1.896   1_655  S
O22          C25   1.278       .  A
Ni23        Ni24   2.390       .  S
C25         C360   1.462       .  S
C26         C403   1.469       .  S
C27         C423   1.471       .  S
C28         C504   1.474       .  S
O29         Ni37   1.961   1_556  S
O29          C39   1.290       .  A
O30         Ni37   1.965       .  S
O30          C40   1.291       .  A
O31         Ni37   1.943       .  S
O31          C41   1.285       .  A
O32         Ni37   1.947   1_556  S
O32          C42   1.285       .  A
O33         Ni38   1.929   1_556  S
O33          C42   1.286       .  A
O34         Ni38   1.932       .  S
O34          C41   1.285       .  A
O35         Ni38   1.933       .  S
O35          C40   1.284       .  A
O36         Ni38   1.934   1_556  S
O36          C39   1.285       .  A
Ni37        Ni38   2.376       .  S
C39         C495   1.518       .  S
C40         C367   1.519       .  S
C41         C349   1.506       .  S
C42         C457   1.506       .  S
O43         Ni51   1.906       .  S
O43          C53   1.278   1_655  A
O44         Ni51   1.904   1_554  S
O44          C54   1.280   1_655  A
O45         Ni51   1.915       .  S
O45          C55   1.283   1_655  A
O46         Ni51   1.918   1_554  S
O46          C56   1.282   1_655  A
O47         Ni52   1.914   1_554  S
O47          C56   1.281       .  A
O48         Ni52   1.919       .  S
O48          C55   1.280       .  A
O49         Ni52   1.926   1_554  S
O49          C54   1.283       .  A
O50         Ni52   1.918       .  S
O50          C53   1.284       .  A
Ni51        Ni52   2.386   1_655  S
C53         C432   1.477       .  S
C54         C376   1.481       .  S
C55         C477   1.483       .  S
C56         C306   1.482       .  S
O57         Ni65   1.884       .  S
O57          C67   1.277   1_556  A
O58         Ni65   1.890   1_565  S
O58          C68   1.277   1_556  A
O59         Ni65   1.911       .  S
O59          C69   1.281   1_556  A
O60         Ni65   1.909   1_565  S
O60          C70   1.280       .  A
O61         Ni66   1.899   1_565  S
O61          C70   1.279   1_554  A
O62         Ni66   1.904       .  S
O62          C69   1.279       .  A
O63         Ni66   1.916   1_565  S
O63          C68   1.282       .  A
O64         Ni66   1.915       .  S
O64          C67   1.281       .  A
Ni65        Ni66   2.390   1_556  S
C67         C342   1.462       .  S
C68         C385   1.468   1_554  S
C69         C313   1.472       .  S
C70         C412   1.469       .  S
O71         Ni77   1.907       .  S
O71          C92   1.264       .  A
O72         Ni95   1.906       .  S
O72          C81   1.268       .  A
O73         Ni77   1.900       .  S
O73         Ni95   1.900       .  S
O73         Ni89   1.918       .  S
O73          H96   0.964       .  S
C74          O91   1.280       .  A
C74          O83   1.280       .  A
C74         C685   1.495       .  S
O75         Ni94   1.940       .  S
O75          C81   1.276       .  A
O76         Ni94   1.912       .  S
O76          C78   1.270       .  A
Ni77         O80   1.919       .  S
Ni77         O82   1.913       .  S
C78          O88   1.280       .  A
C78         C693   1.498       .  S
O79         Ni95   1.932       .  S
O79          C85   1.277       .  A
O80          C85   1.277       .  A
C81         C677   1.482       .  S
O82          C84   1.268       .  A
O83         Ni94   1.931       .  S
C84          O90   1.275       .  A
C84         C681   1.493       .  S
C85         C697   1.483       .  S
H86          O87   0.967       .  S
O87         Ni95   1.912       .  S
O87         Ni89   1.916       .  S
O87         Ni94   1.901       .  S
O88         Ni89   1.957       .  S
Ni89         O93   1.936       .  S
Ni89         O91   1.933       .  S
O90         Ni95   1.946       .  S
C92          O93   1.276       .  A
C92         C689   1.474       .  S
O97        Ni103   1.940       .  S
O97         C118   1.276       .  A
O98        Ni121   1.914       .  S
O98         C107   1.266       .  A
O99        Ni103   1.919       .  S
O99        Ni121   1.918       .  S
O99        Ni115   1.907       .  S
O99         H122   0.965       .  S
C100        O117   1.261       .  A
C100        O109   1.274       .  A
C100        C669   1.469       .  S
O101       Ni120   1.934       .  S
O101        C107   1.274       .  A
O102       Ni120   1.915       .  S
O102        C104   1.274       .  A
Ni103       O106   1.941       .  S
Ni103       O108   1.914       .  S
C104        O114   1.281       .  A
C104        C657   1.493       .  S
O105       Ni121   1.887       .  S
O105        C111   1.260       .  A
O106        C111   1.277       .  A
C107        C673   1.493       .  S
O108        C110   1.272       .  A
O109       Ni120   1.932       .  S
C110        O116   1.278       .  A
C110        C662   1.488       .  S
C111        C653   1.471       .  S
H112        O113   0.965       .  S
O113       Ni121   1.906       .  S
O113       Ni115   1.916       .  S
O113       Ni120   1.917       .  S
O114       Ni115   1.960       .  S
Ni115       O119   1.919       .  S
Ni115       O117   1.891       .  S
O116       Ni121   1.953       .  S
C118        O119   1.269       .  A
C118        C665   1.500       .  S
O123       Ni129   1.902       .  S
O123        C144   1.263       .  A
O124       Ni147   1.908       .  S
O124        C133   1.268       .  A
O125       Ni129   1.887       .  S
O125       Ni147   1.890       .  S
O125       Ni141   1.919       .  S
O125        H148   0.966       .  S
C126        O143   1.281       .  A
C126        O135   1.279       .  A
C126        C649   1.481       .  S
O127       Ni146   1.902       .  S
O127        C133   1.262       .  A
O128       Ni146   1.893       .  S
O128        C130   1.264       .  A
Ni129       O132   1.908       .  S
Ni129       O134   1.900       .  S
C130        O140   1.280       .  A
C130        C633   1.494       .  S
O131       Ni147   1.941       .  S
O131        C137   1.284       .  A
O132        C137   1.279       .  A
C133        C645   1.449       .  S
O134        C136   1.265       .  A
O135       Ni146   1.919       .  S
C136        O142   1.275       .  A
C136        C637   1.495       .  S
C137        C641   1.480       .  S
H138        O139   0.966       .  S
O139       Ni147   1.926       .  S
O139       Ni141   1.893       .  S
O139       Ni146   1.891       .  S
O140       Ni141   1.962       .  S
Ni141       O145   1.912       .  S
Ni141       O143   1.933       .  S
O142       Ni147   1.952       .  S
C144        O145   1.271       .  A
C144        C629   1.453       .  S
O149       Ni155   1.931       .  S
O149        C170   1.275       .  A
O150       Ni173   1.893       .  S
O150        C159   1.261       .  A
O151       Ni155   1.900       .  S
O151       Ni173   1.896       .  S
O151       Ni167   1.901       .  S
O151        H174   0.966       .  S
C152        O169   1.272       .  A
C152        O161   1.278       .  A
C152        C625   1.468       .  S
O153       Ni172   1.935       .  S
O153        C159   1.276       .  A
O154       Ni172   1.908       .  S
O154        C156   1.269       .  A
Ni155       O158   1.913       .  S
Ni155       O160   1.921       .  S
C156        O166   1.274       .  A
C156        C605   1.480       .  S
O157       Ni173   1.915       .  S
O157        C163   1.273       .  A
O158        C163   1.278       .  A
C159        C618   1.471       .  S
O160        C162   1.270       .  A
O161       Ni172   1.918       .  S
C162        O168   1.271       .  A
C162        C613   1.482       .  S
C163        C621   1.473       .  S
H164        O165   0.967       .  S
O165       Ni173   1.901       .  S
O165       Ni167   1.899       .  S
O165       Ni172   1.901       .  S
O166       Ni167   1.940       .  S
Ni167       O171   1.899       .  S
Ni167       O169   1.906       .  S
O168       Ni173   1.931       .  S
C170        O171   1.265       .  A
C170        C609   1.473       .  S
O175       Ni181   1.901       .  S
O175        C196   1.261       .  A
O176       Ni199   1.930       .  S
O176        C185   1.278       .  A
O177       Ni181   1.879       .  S
O177       Ni199   1.898       .  S
O177       Ni193   1.910       .  S
O177        H200   0.966       .  S
C178        O195   1.279       .  A
C178        O187   1.279       .  A
C178        C601   1.480       .  S
O179       Ni198   1.907       .  S
O179        C185   1.265       .  A
O180       Ni198   1.908       .  S
O180        C182   1.267       .  A
Ni181       O184   1.896       .  S
Ni181       O186   1.891       .  S
C182        O192   1.279       .  A
C182        C585   1.499       .  S
O183       Ni199   1.941       .  S
O183        C189   1.283       .  A
O184        C189   1.277       .  A
C185        C589   1.472       .  S
O186        C188   1.264       .  A
O187       Ni198   1.915       .  S
C188        O194   1.282       .  A
C188        C597   1.496       .  S
C189        C593   1.479       .  S
H190        O191   0.967       .  S
O191       Ni199   1.916       .  S
O191       Ni193   1.902       .  S
O191       Ni198   1.887       .  S
O192       Ni193   1.959       .  S
Ni193       O197   1.924       .  S
Ni193       O195   1.930       .  S
O194       Ni199   1.968       .  S
C196        O197   1.273       .  A
C196        C581   1.461       .  S
O201       Ni207   1.917       .  S
O201        C222   1.264       .  A
O202       Ni225   1.925       .  S
O202        C211   1.271       .  A
O203       Ni207   1.906       .  S
O203       Ni225   1.914       .  S
O203       Ni219   1.899       .  S
O203        H226   0.968       .  S
C204        O221   1.266       .  A
C204        O213   1.274       .  A
C204        C558   1.480       .  S
O205       Ni224   1.940       .  S
O205        C211   1.275       .  A
O206       Ni224   1.904       .  S
O206        C208   1.274       .  A
Ni207       O210   1.907       .  S
Ni207       O212   1.896       .  S
C208        O218   1.280       .  A
C208        C570   1.480       .  S
O209       Ni225   1.921       .  S
O209        C215   1.275       .  A
O210        C215   1.275       .  A
C211        C573   1.502       .  S
O212        C214   1.266       .  A
O213       Ni224   1.933       .  S
C214        O220   1.269       .  A
C214        C562   1.475       .  S
C215        C565   1.475       .  S
H216        O217   0.967       .  S
O217       Ni225   1.933       .  S
O217       Ni219   1.935       .  S
O217       Ni224   1.915       .  S
O218       Ni219   1.951       .  S
Ni219       O223   1.951       .  S
Ni219       O221   1.907       .  S
O220       Ni225   1.927       .  S
C222        O223   1.275       .  A
C222        C577   1.489       .  S
O227       Ni233   1.926       .  S
O227        C248   1.272       .  A
O228       Ni251   1.901       .  S
O228        C237   1.264       .  A
O229       Ni233   1.910       .  S
O229       Ni251   1.904       .  S
O229       Ni245   1.913       .  S
O229        H252   0.966       .  S
C230        O247   1.273       .  A
C230        O239   1.276       .  A
C230        C550   1.472       .  S
O231       Ni250   1.918       .  S
O231        C237   1.270       .  A
O232       Ni250   1.909       .  S
O232        C234   1.268       .  A
Ni233       O236   1.926       .  S
Ni233       O238   1.907       .  S
C234        O244   1.271       .  A
C234        C545   1.488       .  S
O235       Ni251   1.917       .  S
O235        C241   1.274       .  A
O236        C241   1.277       .  A
C237        C533   1.467       .  S
O238        C240   1.268       .  A
O239       Ni250   1.921       .  S
C240        O246   1.274       .  A
C240        C537   1.490       .  S
C241        C553   1.478       .  S
H242        O243   0.966       .  S
O243       Ni251   1.917       .  S
O243       Ni245   1.898       .  S
O243       Ni250   1.912       .  S
O244       Ni245   1.934       .  S
Ni245       O249   1.888       .  S
Ni245       O247   1.914       .  S
O246       Ni251   1.945       .  S
C248        O249   1.260       .  A
C248        C542   1.463       .  S
O253       Ni261   1.955       .  S
O253        C263   1.288       .  A
O254       Ni261   1.956   1_455  S
O254        C264   1.289   1_565  A
O255       Ni261   1.937       .  S
O255        C265   1.284       .  A
O256       Ni261   1.928   1_455  S
O256        C266   1.283   1_565  A
O257       Ni262   1.928   1_455  S
O257        C266   1.284       .  A
O258       Ni262   1.934       .  S
O258        C265   1.286   1_545  A
O259       Ni262   1.918   1_455  S
O259        C264   1.281       .  A
O260       Ni262   1.918       .  S
O260        C263   1.282   1_545  A
Ni261      Ni262   2.379   1_565  S
C263        C331   1.506       .  S
C264        C439   1.505       .  S
C265        C466   1.504       .  S
C266        C271   1.493       .  S
C267        C578   1.504       .  S
C267        C268   1.419   1_565  A
C267        C272   1.409       .  A
C268        C269   1.409       .  A
C268        H273   1.082       .  S
C269        C530   1.491       .  S
C269        C270   1.404       .  A
C270        C271   1.407       .  A
C270        H274   1.084       .  S
C271        C272   1.411   1_545  A
C272        H275   1.083       .  S
O276       Ni282   1.944       .  S
O276        C297   1.277       .  A
O277       Ni300   1.922       .  S
O277        C286   1.275       .  A
O278       Ni282   1.898       .  S
O278       Ni300   1.904       .  S
O278       Ni294   1.901       .  S
O278        H301   0.967       .  S
C279        O296   1.273       .  A
C279        O288   1.275       .  A
C279        C509   1.465       .  S
O280       Ni299   1.912       .  S
O280        C286   1.267       .  A
O281       Ni299   1.909       .  S
O281        C283   1.268       .  A
Ni282       O285   1.916       .  S
Ni282       O287   1.906       .  S
C283        O293   1.276       .  A
C283        C529   1.492       .  S
O284       Ni300   1.913       .  S
O284        C290   1.274       .  A
O285        C290   1.279       .  A
C286        C518   1.472       .  S
O287        C289   1.270       .  A
O288       Ni299   1.900       .  S
C289        O295   1.285       .  A
C289        C513   1.497       .  S
C290        C521   1.465       .  S
H291        O292   0.966       .  S
O292       Ni300   1.910       .  S
O292       Ni294   1.901       .  S
O292       Ni299   1.900       .  S
O293       Ni294   1.949       .  S
Ni294       O298   1.896       .  S
Ni294       O296   1.924       .  S
O295       Ni300   1.970       .  S
C297        O298   1.265       .  A
C297        C525   1.477       .  S
C302        C554   1.482       .  S
C302        C303   1.407   1_655  A
C302        C307   1.402       .  A
C303        C304   1.410       .  A
C303        H308   1.079       .  S
C304        C526   1.491       .  S
C304        C305   1.403       .  A
C305        C306   1.404       .  A
C305        H309   1.084       .  S
C306        C307   1.403   1_455  A
C307        H310   1.084       .  S
C311        C626   1.478       .  S
C311        C312   1.404       .  A
C311        C316   1.396   1_556  A
C312        C313   1.405   1_556  A
C312        H317   1.080       .  S
C313        C314   1.406       .  A
C314        C315   1.399       .  A
C314        H318   1.083       .  S
C315        C522   1.470       .  S
C315        C316   1.395       .  A
C316        H319   1.085       .  S
C320        C549   1.479       .  S
C320        C321   1.401       .  A
C320        C325   1.401       .  A
C321        C322   1.398       .  A
C321        H326   1.084       .  S
C322        C517   1.486       .  S
C322        C323   1.415       .  A
C323        C324   1.409       .  A
C323        H327   1.082       .  S
C324        C325   1.407       .  A
C325        H328   1.084       .  S
C329        C598   1.499       .  S
C329        C330   1.421       .  A
C329        C334   1.411   1_565  A
C330        C331   1.413       .  A
C330        H335   1.083       .  S
C331        C332   1.408   1_565  A
C332        C333   1.404       .  A
C332        H336   1.084       .  S
C333        C546   1.490       .  S
C333        C334   1.409       .  A
C334        H337   1.082       .  S
C338        C541   1.470       .  S
C338        C339   1.396   1_554  A
C338        C343   1.405       .  A
C339        C340   1.398       .  A
C339        H344   1.085       .  S
C340        C646   1.465       .  S
C340        C341   1.385       .  A
C341        C342   1.403   1_556  A
C341        H345   1.084       .  S
C342        C343   1.402       .  A
C343        H346   1.082       .  S
C347        C586   1.503       .  S
C347        C348   1.419       .  A
C347        C352   1.412       .  A
C348        C349   1.414       .  A
C348        H353   1.083       .  S
C349        C350   1.407       .  A
C350        C351   1.408       .  A
C350        H354   1.084       .  S
C351        C538   1.495       .  S
C351        C352   1.412       .  A
C352        H355   1.082       .  S
C356        C534   1.475       .  S
C356        C357   1.398       .  A
C356        C361   1.402       .  A
C357        C358   1.403       .  A
C357        H362   1.084       .  S
C358        C630   1.469       .  S
C358        C359   1.389       .  A
C359        C360   1.401       .  A
C359        H363   1.084       .  S
C360        C361   1.402       .  A
C361        H364   1.082       .  S
C365        C574   1.508       .  S
C365        C366   1.423       .  A
C365        C370   1.411       .  A
C366        C367   1.422       .  A
C366        H371   1.081       .  S
C367        C368   1.422       .  A
C368        C369   1.413       .  A
C368        H372   1.083       .  S
C369        C514   1.505       .  S
C369        C370   1.401       .  A
C370        H373   1.084       .  S
C374        C602   1.470       .  S
C374        C375   1.394       .  A
C374        C379   1.402   1_655  A
C375        C376   1.400   1_655  A
C375        H380   1.085       .  S
C376        C377   1.405       .  A
C377        C378   1.411       .  A
C377        H381   1.084       .  S
C378        C569   1.488       .  S
C378        C379   1.413       .  A
C379        H382   1.082       .  S
C383        C566   1.466       .  S
C383        C384   1.399       .  A
C383        C388   1.404   1_554  A
C384        C385   1.396   1_554  A
C384        H389   1.084       .  S
C385        C386   1.398       .  A
C386        C387   1.395       .  A
C386        H390   1.085       .  S
C387        C670   1.470       .  S
C387        C388   1.406       .  A
C388        H391   1.083       .  S
C392        C594   1.467       .  S
C392        C393   1.400       .  A
C392        C397   1.397       .  A
C393        C394   1.407       .  A
C393        H398   1.083       .  S
C394        C561   1.479       .  S
C394        C395   1.408       .  A
C395        C396   1.403       .  A
C395        H399   1.084       .  S
C396        C397   1.399       .  A
C397        H400   1.085       .  S
C401        C557   1.479       .  S
C401        C402   1.401       .  A
C401        C406   1.409       .  A
C402        C403   1.399       .  A
C402        H407   1.084       .  S
C403        C404   1.396       .  A
C404        C405   1.395       .  A
C404        H408   1.085       .  S
C405        C654   1.473       .  S
C405        C406   1.410       .  A
C406        H409   1.082       .  S
C410        C590   1.486       .  S
C410        C411   1.393       .  A
C410        C415   1.411   1_554  A
C411        C412   1.402   1_554  A
C411        H416   1.084       .  S
C412        C413   1.404       .  A
C413        C414   1.399       .  A
C413        H417   1.084       .  S
C414        C690   1.488       .  S
C414        C415   1.414       .  A
C415        H418   1.082       .  S
C419        C510   1.467       .  S
C419        C420   1.392       .  A
C419        C424   1.397       .  A
C420        C421   1.392       .  A
C420        H425   1.086       .  S
C421        C622   1.466       .  S
C421        C422   1.402       .  A
C422        C423   1.408       .  A
C422        H426   1.083       .  S
C423        C424   1.410       .  A
C424        H427   1.083       .  S
C428        C650   1.483       .  S
C428        C429   1.408   1_655  A
C428        C433   1.405       .  A
C429        C430   1.411       .  A
C429        H434   1.080       .  S
C430        C617   1.480       .  S
C430        C431   1.398       .  A
C431        C432   1.395       .  A
C431        H435   1.084       .  S
C432        C433   1.404   1_455  A
C433        H436   1.084       .  S
C437        C674   1.493       .  S
C437        C438   1.418       .  A
C437        C442   1.403   1_565  A
C438        C439   1.419   1_565  A
C438        H443   1.082       .  S
C439        C440   1.419       .  A
C440        C441   1.406       .  A
C440        H444   1.083       .  S
C441        C614   1.493       .  S
C441        C442   1.396       .  A
C442        H445   1.084       .  S
C446        C642   1.478       .  S
C446        C447   1.401       .  A
C446        C451   1.405       .  A
C447        C448   1.402       .  A
C447        H452   1.084       .  S
C448        C449   1.399       .  A
C449        C450   1.402       .  A
C449        H453   1.084       .  S
C450        C610   1.483       .  S
C450        C451   1.411       .  A
C451        H454   1.080       .  S
C455        C666   1.502       .  S
C455        C456   1.423       .  A
C455        C460   1.405       .  A
C456        C457   1.425       .  A
C456        H461   1.082       .  S
C457        C458   1.413       .  A
C458        C459   1.401       .  A
C458        H462   1.084       .  S
C459        C606   1.487       .  S
C459        C460   1.396       .  A
C460        H463   1.085       .  S
C464        C694   1.503       .  S
C464        C465   1.417       .  A
C464        C469   1.416       .  A
C465        C466   1.412       .  A
C465        H470   1.084       .  S
C466        C467   1.406   1_565  A
C467        C468   1.409       .  A
C467        H471   1.084       .  S
C468        C638   1.494       .  S
C468        C469   1.412   1_545  A
C469        H472   1.082       .  S
C473        C698   1.474       .  S
C473        C474   1.407   1_655  A
C473        C478   1.395       .  A
C474        C475   1.416       .  A
C474        H479   1.081       .  S
C475        C661   1.496       .  S
C475        C476   1.411       .  A
C476        C477   1.408       .  A
C476        H480   1.084       .  S
C477        C478   1.398   1_455  A
C478        H481   1.085       .  S
C482        C686   1.490       .  S
C482        C483   1.412       .  A
C482        C487   1.402       .  A
C483        C484   1.419       .  A
C483        H488   1.081       .  S
C484        C658   1.501       .  S
C484        C485   1.414       .  A
C485        C486   1.407       .  A
C485        H489   1.084       .  S
C486        C487   1.402       .  A
C487        H490   1.084       .  S
C491        C682   1.505       .  S
C491        C492   1.410       .  A
C491        C496   1.423       .  A
C492        C493   1.405       .  A
C492        H497   1.081       .  S
C493        C634   1.499       .  S
C493        C494   1.414       .  A
C494        C495   1.416       .  A
C494        H498   1.083       .  S
C495        C496   1.418       .  A
C496        H499   1.083       .  S
C500        C582   1.477       .  S
C500        C501   1.404       .  A
C500        C505   1.387       .  A
C501        C502   1.402       .  A
C501        H506   1.084       .  S
C502        C678   1.485       .  S
C502        C503   1.410       .  A
C503        C504   1.410       .  A
C503        H507   1.082       .  S
C504        C505   1.404       .  A
C505        H508   1.084       .  S
C509        C510   1.340       .  D
C509        H511   1.086       .  S
C510        H512   1.090       .  S
C513        C514   1.362       .  D
C513        H515   1.086       .  S
C514        H516   1.087       .  S
C517        C518   1.337       .  D
C517        H519   1.087       .  S
C518        H520   1.086       .  S
C521        C522   1.342       .  D
C521        H523   1.085       .  S
C522        H524   1.089       .  S
C525        C526   1.345       .  D
C525        H527   1.082       .  S
C526        H528   1.087       .  S
C529        C530   1.352       .  D
C529        H531   1.086       .  S
C530        H532   1.087       .  S
C533        C534   1.343       .  D
C533        H535   1.085       .  S
C534        H536   1.088       .  S
C537        C538   1.351       .  D
C537        H539   1.085       .  S
C538        H540   1.087       .  S
C541        C542   1.337       .  D
C541        H543   1.088       .  S
C542        H544   1.086       .  S
C545        C546   1.348       .  D
C545        H547   1.086       .  S
C546        H548   1.087       .  S
C549        C550   1.345       .  D
C549        H551   1.087       .  S
C550        H552   1.086       .  S
C553        C554   1.346       .  D
C553        H555   1.086       .  S
C554        H556   1.087       .  S
C557        C558   1.344       .  D
C557        H559   1.087       .  S
C558        H560   1.086       .  S
C561        C562   1.347       .  D
C561        H563   1.087       .  S
C562        H564   1.086       .  S
C565        C566   1.343       .  D
C565        H567   1.086       .  S
C566        H568   1.087       .  S
C569        C570   1.348       .  D
C569        H571   1.087       .  S
C570        H572   1.085       .  S
C573        C574   1.355       .  D
C573        H575   1.084       .  S
C574        H576   1.087       .  S
C577        C578   1.347       .  D
C577        H579   1.086       .  S
C578        H580   1.086       .  S
C581        C582   1.332       .  D
C581        H583   1.087       .  S
C582        H584   1.087       .  S
C585        C586   1.360       .  D
C585        H587   1.085       .  S
C586        H588   1.087       .  S
C589        C590   1.335       .  D
C589        H591   1.086       .  S
C590        H592   1.087       .  S
C593        C594   1.347       .  D
C593        H595   1.086       .  S
C594        H596   1.087       .  S
C597        C598   1.362       .  D
C597        H599   1.085       .  S
C598        H600   1.087       .  S
C601        C602   1.345       .  D
C601        H603   1.086       .  S
C602        H604   1.087       .  S
C605        C606   1.349       .  D
C605        H607   1.086       .  S
C606        H608   1.087       .  S
C609        C610   1.343       .  D
C609        H611   1.083       .  S
C610        H612   1.087       .  S
C613        C614   1.351       .  D
C613        H615   1.086       .  S
C614        H616   1.087       .  S
C617        C618   1.340       .  D
C617        H619   1.088       .  S
C618        H620   1.084       .  S
C621        C622   1.338       .  D
C621        H623   1.087       .  S
C622        H624   1.087       .  S
C625        C626   1.342       .  D
C625        H627   1.083       .  S
C626        H628   1.088       .  S
C629        C630   1.333       .  D
C629        H631   1.088       .  S
C630        H632   1.087       .  S
C633        C634   1.360       .  D
C633        H635   1.085       .  S
C634        H636   1.087       .  S
C637        C638   1.354       .  D
C637        H639   1.086       .  S
C638        H640   1.087       .  S
C641        C642   1.348       .  D
C641        H643   1.086       .  S
C642        H644   1.088       .  S
C645        C646   1.334       .  D
C645        H647   1.089       .  S
C646        H648   1.086       .  S
C649        C650   1.347       .  D
C649        H651   1.086       .  S
C650        H652   1.087       .  S
C653        C654   1.336       .  D
C653        H655   1.086       .  S
C654        H656   1.088       .  S
C657        C658   1.352       .  D
C657        H659   1.084       .  S
C658        H660   1.087       .  S
C661        C662   1.350       .  D
C661        H663   1.087       .  S
C662        H664   1.085       .  S
C665        C666   1.350       .  D
C665        H667   1.085       .  S
C666        H668   1.087       .  S
C669        C670   1.337       .  D
C669        H671   1.086       .  S
C670        H672   1.088       .  S
C673        C674   1.347       .  D
C673        H675   1.085       .  S
C674        H676   1.088       .  S
C677        C678   1.346       .  D
C677        H679   1.085       .  S
C678        H680   1.087       .  S
C681        C682   1.360       .  D
C681        H683   1.085       .  S
C682        H684   1.087       .  S
C685        C686   1.352       .  D
C685        H687   1.086       .  S
C686        H688   1.087       .  S
C689        C690   1.338       .  D
C689        H691   1.087       .  S
C690        H692   1.087       .  S
C693        C694   1.357       .  D
C693        H695   1.085       .  S
C694        H696   1.087       .  S
C697        C698   1.345       .  D
C697        H699   1.087       .  S
C698        H700   1.087       .  S
