geometry optimzed in LAMMPS
_audit_creation_date              2020-11-30 
_audit_creation_method            'lammps2cif' 
_symmetry_space_group_name_H-M    'P1' 
_symmetry_Int_Tables_number       1 
_symmetry_cell_setting            triclinic 
loop_ 
_symmetry_equiv_pos_as_xyz 
  x,y,z 
_cell_length_a                    37.33607831 
_cell_length_b                    34.62206939450555 
_cell_length_c                    35.76814096396648 
_cell_angle_alpha                 90.35470070328955 
_cell_angle_beta                  90.23332826546475 
_cell_angle_gamma                 92.54608782999463 
loop_ 
_atom_site_label 
_atom_site_type_symbol 
_atom_site_fract_x 
_atom_site_fract_y 
_atom_site_fract_z 
_atom_site_charge 
O1          O  0.53439039  0.03203219  0.47017763    -0.74400
O2          O  0.51825098  0.95926788  0.55089124    -0.74400
O3          O  0.52782900  0.95387431  0.47588620    -0.74500
O4          O  0.52502619  0.03834302  0.54598811    -0.74500
O5          O  0.46599690  0.03990551  0.53901261    -0.74500
O6          O  0.46895565  0.95674434  0.46661971    -0.74400
O7          O  0.45927630  0.96045283  0.54177791    -0.74400
O8          O  0.47535362  0.03534566  0.46282947    -0.74500
Ni9        Ni  0.52840345  0.99596530  0.51116920     1.25400
Ni10       Ni  0.46530834  0.99839399  0.50235202     1.25400
C11         C  0.50743722  0.04486515  0.45244840     0.87800
C12         C  0.48626857  0.94652666  0.55853664     0.87700
C13         C  0.49892075  0.94147096  0.45955930     0.87800
C14         C  0.49514703  0.05282071  0.55476780     0.87900
O15         O  0.95796080  0.46284498  0.46281763    -0.74400
O16         O  0.04047958  0.53302910  0.45857680    -0.74400
O17         O  0.03056598  0.45430611  0.45967003    -0.74500
O18         O  0.96906886  0.53977464  0.46150084    -0.74500
O19         O  0.97184405  0.54114003  0.52383674    -0.74500
O20         O  0.03357854  0.45592280  0.52200982    -0.74400
O21         O  0.04287832  0.53488236  0.52081641    -0.74400
O22         O  0.96131679  0.46372946  0.52504907    -0.74500
Ni23       Ni  0.99966268  0.49710793  0.45840280     1.25400
Ni24       Ni  0.00272270  0.49860377  0.52512994     1.25400
C25         C  0.94454957  0.45422967  0.49480379     0.87800
C26         C  0.05309598  0.54806895  0.48900712     0.87700
C27         C  0.04227620  0.44120061  0.49058485     0.87800
C28         C  0.96045357  0.55449249  0.49292758     0.87900
O29         O  0.56159837  0.47554278  0.03704862    -0.74400
O30         O  0.48388380  0.46831927  0.96518847    -0.74400
O31         O  0.55622990  0.47270399  0.96076103    -0.74500
O32         O  0.48817279  0.47033173  0.04083285    -0.74500
O33         O  0.48655825  0.53458369  0.03965590    -0.74500
O34         O  0.55546593  0.53696994  0.95934571    -0.74400
O35         O  0.48318680  0.53263337  0.96388682    -0.74400
O36         O  0.56005729  0.53980848  0.03612607    -0.74500
Ni37       Ni  0.52264407  0.46951345  0.00123439     1.25400
Ni38       Ni  0.52144802  0.53831054  0.99994248     1.25400
C39         C  0.57367019  0.50894027  0.04839730     0.87800
C40         C  0.47142288  0.49942148  0.95199099     0.87700
C41         C  0.56549994  0.50491999  0.94541679     0.87800
C42         C  0.47496368  0.50174947  0.05234377     0.87900
O43         O  0.98058633  0.46913714  0.97563498    -0.74400
O44         O  0.98349091  0.55244730  0.04734526    -0.74400
O45         O  0.97394252  0.54595069  0.97143850    -0.74500
O46         O  0.99002619  0.47456258  0.05179796    -0.74500
O47         O  0.04912067  0.48156135  0.04371369    -0.74500
O48         O  0.03308716  0.55454666  0.96478553    -0.74400
O49         O  0.04254848  0.55920974  0.04091690    -0.74400
O50         O  0.03956850  0.47718535  0.96765585    -0.74500
Ni51       Ni  0.97996115  0.51016658  0.01196343     1.25400
Ni52       Ni  0.04316401  0.51839215  0.00401049     1.25400
C53         C  0.00931392  0.46081117  0.95843211     0.87800
C54         C  0.01356090  0.56924588  0.05667535     0.87700
C55         C  0.00103170  0.56139007  0.95435595     0.87800
C56         C  0.02208390  0.46665653  0.06130646     0.87900
O57         O  0.54355241  0.04115905  0.96694692    -0.74400
O58         O  0.47921264  0.95153976  0.96727494    -0.74400
O59         O  0.47136909  0.02946206  0.96758518    -0.74500
O60         O  0.55117617  0.96470292  0.96675589    -0.74500
O61         O  0.55159603  0.96452509  0.02920382    -0.74500
O62         O  0.47230578  0.03011449  0.03001621    -0.74400
O63         O  0.47958310  0.95207953  0.02961454    -0.74400
O64         O  0.54467711  0.04113858  0.02931032    -0.74500
Ni65       Ni  0.51108698  0.99672162  0.96490445     1.25400
Ni66       Ni  0.51185316  0.99700118  0.03176802     1.25400
C67         C  0.55578058  0.05487260  0.99803820     0.87800
C68         C  0.46960899  0.93634781  0.99848899     0.87700
C69         C  0.45933705  0.04118166  0.99891959     0.87800
C70         C  0.56477541  0.95455480  0.99785939     0.87900
O71         O  0.71241192  0.76090616  0.83198628    -0.80900
O72         O  0.78517633  0.69363266  0.69221575    -0.65500
O73         O  0.76125756  0.75636125  0.77491242    -1.12100
C74         C  0.66800175  0.79490380  0.69227092     1.06000
O75         O  0.78071763  0.74208937  0.65255067    -0.78800
O76         O  0.75536347  0.81085954  0.67113413    -0.66300
Ni77       Ni  0.75426691  0.73272383  0.82245615     1.34900
C78         C  0.76233474  0.82996218  0.70083732     0.84800
O79         O  0.81498006  0.70655583  0.75886370    -0.79300
O80         O  0.79616591  0.70183217  0.81784970    -0.89600
C81         C  0.79297919  0.70970825  0.66156207     0.84300
O82         O  0.72284527  0.69163695  0.80614523    -0.67800
O83         O  0.68583018  0.77968731  0.66603658    -0.87100
C84         C  0.72417839  0.67092005  0.77710327     0.85200
C85         C  0.81943325  0.69623819  0.79258244     1.06700
H86         H  0.71240244  0.72272409  0.71190690     0.38500
O87         O  0.73117334  0.74285677  0.71176274    -1.09700
O88         O  0.75186085  0.81942422  0.73310976    -0.66400
Ni89       Ni  0.72075416  0.77797558  0.75104101     1.26300
O90         O  0.74526974  0.67858511  0.75008588    -0.66600
O91         O  0.68028791  0.79864563  0.72553711    -0.78900
C92         C  0.70534104  0.79570555  0.82519565     0.84600
O93         O  0.71113751  0.81041595  0.79321406    -0.66100
Ni94       Ni  0.73349943  0.76081643  0.66158956     1.27400
Ni95       Ni  0.77320423  0.72382699  0.73445893     1.26100
H96         H  0.78019542  0.77600575  0.77785324     0.39100
O97         O  0.25503554  0.63963512  0.76552931    -0.80900
O98         O  0.19148149  0.79947988  0.73039027    -0.65500
O99         O  0.24802593  0.71034726  0.72867698    -1.12100
C100        C  0.30867648  0.77088590  0.83176858     1.06000
O101        O  0.23874298  0.83943689  0.73960472    -0.78800
O102        O  0.30436686  0.81173938  0.74242745    -0.66300
Ni103      Ni  0.22578528  0.65961566  0.72600185     1.34900
C104        C  0.32130585  0.78280727  0.73160335     0.84800
O105        O  0.19444905  0.73921492  0.68495648    -0.79300
O106        O  0.19530733  0.67419626  0.68483982    -0.89600
C107        C  0.20708950  0.83254689  0.72723825     0.84300
O108        O  0.18922886  0.66702729  0.76195555    -0.67800
O109        O  0.29782955  0.80263934  0.81906239    -0.87100
C110        C  0.17115514  0.69576640  0.77056774     0.85200
C111        C  0.18686118  0.70624522  0.67044892     1.06700
H112        H  0.22951375  0.76346988  0.79597369     0.38500
O113        O  0.24499332  0.76697158  0.77456099    -1.09700
O114        O  0.31249866  0.74843221  0.74158063    -0.66400
Ni115      Ni  0.27542689  0.72386268  0.77221513     1.26300
O116        O  0.17967997  0.72966816  0.75883014    -0.66600
O117        O  0.30151856  0.73809812  0.81662880    -0.78900
C118        C  0.28867896  0.64528365  0.77006648     0.84600
O119        O  0.30312341  0.67902445  0.76864014    -0.66100
Ni120      Ni  0.26733666  0.81782657  0.77847885     1.27400
Ni121      Ni  0.21849620  0.75374343  0.72993970     1.26100
H122        H  0.26311990  0.71301597  0.70695811     0.39100
O123        O  0.77777611  0.28255605  0.65718772    -0.80900
O124        O  0.71054325  0.19436724  0.78880174    -0.65500
O125        O  0.72853758  0.26789149  0.71193341    -1.12100
C126        C  0.81755789  0.31507908  0.79942240     1.06000
O127        O  0.70638173  0.24515984  0.82519656    -0.78800
O128        O  0.72924823  0.31728926  0.81785754    -0.66300
Ni129      Ni  0.73330742  0.25284329  0.66111795     1.34900
C130        C  0.72163831  0.33630600  0.78915340     0.84800
O131        O  0.67966801  0.20693516  0.72234335    -0.79300
O132        O  0.68837093  0.22255499  0.66214159    -0.89600
C133        C  0.70255301  0.20905300  0.82004721     0.84300
O134        O  0.76010644  0.20787414  0.66791301    -0.67800
O135        O  0.79926104  0.29722812  0.82466776    -0.87100
C136        C  0.76516520  0.18656045  0.69590746     0.85200
C137        C  0.66977847  0.20646819  0.68817261     1.06700
H138        H  0.77929446  0.23862741  0.77370721     0.38500
O139        O  0.75935853  0.25522394  0.77385646    -1.09700
O140        O  0.73438572  0.32961062  0.75702361    -0.66400
Ni141      Ni  0.76800688  0.29388705  0.73764467     1.26300
O142        O  0.75137771  0.19245567  0.72791601    -0.66600
O143        O  0.80723574  0.31831910  0.76543758    -0.78900
C144        C  0.78189494  0.31827776  0.66541269     0.84600
O145        O  0.77645501  0.32980007  0.69847176    -0.66100
Ni146      Ni  0.75290923  0.27055959  0.82432104     1.27400
Ni147      Ni  0.71960678  0.22976699  0.74866193     1.26100
H148        H  0.70833985  0.28442895  0.71214053     0.39100
O149        O  0.29119298  0.21346498  0.68499118    -0.80900
O150        O  0.16299017  0.28239956  0.77830519    -0.65500
O151        O  0.25020445  0.26675087  0.72639135    -1.12100
C152        C  0.27967965  0.20284699  0.83897415     1.06000
O153        O  0.19035777  0.30234523  0.83066882    -0.78800
O154        O  0.26316956  0.30028168  0.83745916    -0.66300
Ni155      Ni  0.24841411  0.24260550  0.67806774     1.34900
C156        C  0.28815928  0.30684476  0.81397962     0.84800
O157        O  0.18665568  0.30410779  0.71187947    -0.79300
O158        O  0.20668120  0.26981024  0.66364703    -0.89600
C159        C  0.16332209  0.30136151  0.80870871     0.84300
O160        O  0.21927670  0.19929591  0.69366379    -0.67800
O161        O  0.25594613  0.22258945  0.85495333    -0.87100
C162        C  0.18924868  0.19919602  0.71024425     0.85200
C163        C  0.18648275  0.29484433  0.67756473     1.06700
H164        H  0.21311527  0.21860840  0.78964479     0.38500
O165        O  0.22531860  0.24375072  0.78952916    -1.09700
O166        O  0.29309530  0.28491367  0.78590403    -0.66400
Ni167      Ni  0.27040439  0.23775487  0.76581416     1.26300
O168        O  0.17997906  0.22748506  0.73069056    -0.66600
O169        O  0.28876768  0.20723488  0.80504554    -0.78900
C170        C  0.31731006  0.21683590  0.70788852     0.84600
O171        O  0.31427323  0.23159943  0.74014096    -0.66100
Ni172      Ni  0.22422299  0.26223159  0.84017083     1.27400
Ni173      Ni  0.20541810  0.27384015  0.75102739     1.26100
H174        H  0.26286791  0.29159226  0.72409704     0.39100
O175        O  0.81287209  0.76478895  0.33232270    -0.80900
O176        O  0.72154472  0.82738974  0.20962815    -0.65500
O177        O  0.75545703  0.76087154  0.28438779    -1.12100
C178        C  0.84294568  0.72217194  0.20012302     1.06000
O179        O  0.74398543  0.79858340  0.15902997    -0.78800
O180        O  0.74381280  0.72528369  0.18444855    -0.66300
Ni181      Ni  0.76471459  0.78120874  0.33344769     1.34900
C182        C  0.74867943  0.69733191  0.20621333     0.84800
O183        O  0.69695478  0.80610957  0.27771775    -0.79300
O184        O  0.71695111  0.79928396  0.33672165    -0.89600
C185        C  0.72495167  0.82368776  0.17456914     0.84300
O186        O  0.78434360  0.83127348  0.32248310    -0.67800
O187        O  0.81829641  0.72613835  0.17582351    -0.87100
C188        C  0.78299783  0.85188918  0.29363226     0.85200
C189        C  0.69208436  0.80596100  0.31332743     1.06700
H190        H  0.79946111  0.80307732  0.22211711     0.38500
O191        O  0.78252433  0.78182829  0.22173812    -1.09700
O192        O  0.76997598  0.70082714  0.23466740    -0.66400
Ni193      Ni  0.79665838  0.74555659  0.25832358     1.26300
O194        O  0.76486191  0.84159970  0.26488930    -0.66600
O195        O  0.83939898  0.73377162  0.23338223    -0.78900
C196        C  0.81928880  0.72956506  0.32815093     0.84600
O197        O  0.81023058  0.71228017  0.29803582    -0.66100
Ni198      Ni  0.77990052  0.76288324  0.17149766     1.27400
Ni199      Ni  0.73890269  0.79507316  0.24803732     1.26100
H200        H  0.73821923  0.73878866  0.28641102     0.39100
O201        O  0.25607537  0.85030987  0.27415143    -0.80900
O202        O  0.32627238  0.69304539  0.22505891    -0.65500
O203        O  0.26619919  0.77914608  0.23597726    -1.12100
C204        C  0.21034517  0.70598243  0.33015387     1.06000
O205        O  0.28270921  0.64835795  0.23339135    -0.78800
O206        O  0.21768473  0.67746129  0.23425270    -0.66300
Ni207      Ni  0.28819942  0.83048862  0.23684606     1.34900
C208        C  0.19696986  0.70540739  0.23284422     0.84800
O209        O  0.31744158  0.75529496  0.18596096    -0.79300
O210        O  0.32209127  0.81867670  0.19779872    -0.89600
C211        C  0.31288659  0.65920553  0.22008207     0.84300
O212        O  0.32263132  0.82080482  0.27486923    -0.67800
O213        O  0.21826416  0.67677908  0.31073302    -0.87100
C214        C  0.34330344  0.79276115  0.27652925     0.85200
C215        C  0.32932319  0.78902953  0.17836132     1.06700
H216        H  0.29114060  0.71839430  0.29535715     0.38500
O217        O  0.27417465  0.71772847  0.27479557    -1.09700
O218        O  0.20361432  0.73721164  0.25055413    -0.66400
Ni219      Ni  0.24327313  0.76021930  0.28022530     1.26300
O220        O  0.33671944  0.76048430  0.25966563    -0.66600
O221        O  0.22206182  0.74022126  0.32405604    -0.78900
C222        C  0.22559964  0.83951089  0.28729178     0.84600
O223        O  0.21418170  0.80437101  0.28641920    -0.66100
Ni224      Ni  0.25189055  0.66640476  0.27190188     1.27400
Ni225      Ni  0.29701885  0.73668121  0.23069694     1.26100
H226        H  0.24927123  0.77798980  0.21528192     0.39100
O227        O  0.74085968  0.24265651  0.15826496    -0.80900
O228        O  0.78547851  0.33750856  0.29751946    -0.65500
O229        O  0.78356233  0.25960903  0.22101147    -1.12100
C230        C  0.69160148  0.20300990  0.29791622     1.06000
O231        O  0.79004483  0.28968132  0.33625387    -0.78800
O232        O  0.78208370  0.21491639  0.32370138    -0.66300
Ni233      Ni  0.78327520  0.27353762  0.16965966     1.34900
C234        C  0.78913390  0.19338962  0.29635512     0.84800
O235        O  0.82654459  0.32697417  0.23594575    -0.79300
O236        O  0.82605513  0.30512594  0.17654617    -0.89600
C237        C  0.78638230  0.32532818  0.33081330     0.84300
O238        O  0.75394481  0.31698477  0.17287045    -0.67800
O239        O  0.70854682  0.21925221  0.32527907    -0.87100
C240        C  0.74155630  0.33627547  0.19963220     0.85200
C241        C  0.84072100  0.32401616  0.20360270     1.06700
H242        H  0.72459403  0.28491163  0.27712791     0.38500
O243        O  0.74587364  0.27020968  0.27886731    -1.09700
O244        O  0.77493533  0.19630228  0.26414782    -0.66400
Ni245      Ni  0.74266744  0.23153399  0.24131538     1.26300
O246        O  0.75211470  0.33179812  0.23305607    -0.66600
O247        O  0.70184477  0.20540832  0.26390174    -0.78900
C248        C  0.73002098  0.20916854  0.16876423     0.84600
O249        O  0.73818229  0.19586659  0.20043735    -0.66100
Ni250      Ni  0.74962939  0.25481319  0.32961166     1.27400
Ni251      Ni  0.78564788  0.29973390  0.25791895     1.26100
H252        H  0.80444562  0.24470714  0.22436804     0.39100
O253        O  0.95575729  0.97844276  0.46792754    -0.74400
O254        O  0.02329192  0.96614676  0.54912351    -0.74400
O255        O  0.95050233  0.97358377  0.54460960    -0.74500
O256        O  0.02793362  0.97113537  0.47223623    -0.74500
O257        O  0.03651232  0.03495716  0.47797436    -0.74500
O258        O  0.95758154  0.03743393  0.54730298    -0.74400
O259        O  0.02967271  0.03022790  0.55426602    -0.74400
O260        O  0.96462237  0.04235248  0.47180328    -0.74500
Ni261      Ni  0.98904048  0.97000313  0.50836517     1.25400
Ni262      Ni  0.99736588  0.03837808  0.51305555     1.25400
C263        C  0.94998274  0.01245045  0.45574039     0.87800
C264        C  0.03741640  0.99640438  0.56532093     0.87700
C265        C  0.94119792  0.00616049  0.55811266     0.87800
C266        C  0.04481461  0.00280288  0.46292710     0.87900
N267        N  0.16130242  0.00948805  0.35511186    -0.03400
C268        C  0.18514560  0.98155388  0.34641712    -0.00800
C269        C  0.21842686  0.99850138  0.33847777    -0.23700
C270        C  0.21558092  0.03750781  0.34121578    -0.23900
C271        C  0.18064876  0.04401401  0.35098608    -0.00900
H272        H  0.24156104  0.98396682  0.32824874     0.12800
H273        H  0.23613159  0.05916871  0.33389931     0.12900
O274        O  0.20289505  0.28871640  0.19231806    -0.80900
O275        O  0.34450783  0.22026980  0.25768325    -0.65500
O276        O  0.24827172  0.23322377  0.22432413    -1.12100
C277        C  0.23117113  0.28379450  0.34523470     1.06000
O278        O  0.32868170  0.19736789  0.31329488    -0.78800
O279        O  0.25633054  0.18772163  0.32302415    -0.66300
Ni280      Ni  0.23931326  0.25475423  0.17597249     1.34900
C281        C  0.22437246  0.18812791  0.31079150     0.84800
O282        O  0.31054103  0.19959370  0.19550179    -0.79300
O283        O  0.27322416  0.22264722  0.15279251    -0.89600
C284        C  0.35165550  0.20204995  0.28728651     0.84300
O285        O  0.27408777  0.29659687  0.17940199    -0.67800
O286        O  0.25454790  0.25959274  0.35405233    -0.87100
C287        C  0.30433306  0.30076320  0.19566656     0.85200
C288        C  0.29914098  0.20212130  0.16217616     1.06700
H289        H  0.29555643  0.27901330  0.28469806     0.38500
O290        O  0.28300822  0.25405264  0.28342792    -1.09700
O291        O  0.21317418  0.21531042  0.29046806    -0.66400
Ni292      Ni  0.23473933  0.26179603  0.26773676     1.26300
O293        O  0.31615019  0.27597345  0.21847065    -0.66600
O294        O  0.22327136  0.29104390  0.31144906    -0.78900
C295        C  0.18048792  0.28643899  0.21887740     0.84600
O296        O  0.18753084  0.27008938  0.24950177    -0.66100
Ni297      Ni  0.29051123  0.22956114  0.33046508     1.27400
Ni298      Ni  0.29720070  0.22725929  0.23950574     1.26100
H299        H  0.23621083  0.20787077  0.22471574     0.39100
N300        N  0.01935482  0.36947713  0.19121933    -0.03400
C301        C  0.98825071  0.37122526  0.21121517    -0.00800
C302        C  0.99466590  0.36558233  0.24876091    -0.23700
C303        C  0.03041166  0.35945859  0.25245268    -0.23900
C304        C  0.04499434  0.36088441  0.21697285    -0.00900
H305        H  0.97477376  0.36233395  0.27058186     0.12800
H306        H  0.04356218  0.35029476  0.27771699     0.12900
N307        N  0.34805853  0.14876456  0.99067575    -0.03400
C308        C  0.33814825  0.16267814  0.95689081    -0.00800
C309        C  0.32594660  0.19963983  0.96086334    -0.23700
C310        C  0.32817628  0.20875835  0.99816418    -0.23900
C311        C  0.34165937  0.17715245  0.01587228    -0.00900
H312        H  0.31416100  0.21688461  0.93929413     0.12800
H313        H  0.31799206  0.23420148  0.01141409     0.12900
N314        N  0.51937749  0.13220761  0.31383966    -0.03400
C315        C  0.55046477  0.13393158  0.29341470    -0.00800
C316        C  0.54287768  0.13622278  0.25572677    -0.23700
C317        C  0.50648947  0.13697609  0.25228443    -0.23900
C318        C  0.49245249  0.13618603  0.28801486    -0.00900
H319        H  0.56200928  0.14103023  0.23338753     0.12800
H320        H  0.49214349  0.14303129  0.22676533     0.12900
N321        N  0.86901763  0.02496867  0.31733647    -0.03400
C322        C  0.86767031  0.99620888  0.29096483    -0.00800
C323        C  0.87135735  0.01138900  0.25554047    -0.23700
C324        C  0.87184184  0.05058747  0.25938469    -0.23900
C325        C  0.86944764  0.05863945  0.29723378    -0.00900
H326        H  0.86755975  0.99575180  0.22941458     0.12800
H327        H  0.86937314  0.07074932  0.23661315     0.12900
N328        N  0.66647700  0.17662548  0.99955001    -0.03400
C329        C  0.67969577  0.19647875  0.96941624    -0.00800
C330        C  0.69808926  0.23008569  0.98063987    -0.23700
C331        C  0.69718319  0.23094031  0.01879006    -0.23900
C332        C  0.67777098  0.19814384  0.02994632    -0.00900
H333        H  0.71258283  0.25055973  0.96290304     0.12800
H334        H  0.71093222  0.25216931  0.03669883     0.12900
N335        N  0.68858436  0.51077696  0.15798577    -0.03400
C336        C  0.71333668  0.53913734  0.16917614    -0.00800
C337        C  0.74385966  0.52295604  0.18269002    -0.23700
C338        C  0.73809824  0.48383001  0.18088930    -0.23900
C339        C  0.70397085  0.47666473  0.16648221    -0.00900
H340        H  0.76695238  0.53819924  0.19508657     0.12800
H341        H  0.75569561  0.46269327  0.19210708     0.12900
N342        N  0.79558506  0.40049951  0.49665645    -0.03400
C343        C  0.77194376  0.40843028  0.46890784    -0.00800
C344        C  0.73846812  0.41454568  0.48369666    -0.23700
C345        C  0.74041858  0.40667193  0.52098681    -0.23900
C346        C  0.77557838  0.39847049  0.52859983    -0.00900
H347        H  0.71382584  0.41722894  0.46804586     0.12800
H348        H  0.71786488  0.40415933  0.53984486     0.12900
N349        N  0.35091254  0.48667237  0.14901016    -0.03400
C350        C  0.32893752  0.51685594  0.15524991    -0.00800
C351        C  0.29498103  0.50324128  0.16510089    -0.23700
C352        C  0.29534459  0.46396999  0.16517765    -0.23900
C353        C  0.32971273  0.45418633  0.15614353    -0.00900
H354        H  0.27285741  0.52028567  0.17386454     0.12800
H355        H  0.27371804  0.44451884  0.17446962     0.12900
N356        N  0.02066662  0.68587839  0.17551261    -0.03400
C357        C  0.99201067  0.70316523  0.19159650    -0.00800
C358        C  0.00346393  0.73188740  0.21629384    -0.23700
C359        C  0.03987130  0.73234754  0.21681036    -0.23900
C360        C  0.05030397  0.70471082  0.19154595    -0.00900
H361        H  0.98679518  0.75002422  0.23300859     0.12800
H362        H  0.05721833  0.75090863  0.23416126     0.12900
N363        N  0.38811844  0.78953255  0.00058051    -0.03400
C364        C  0.38400960  0.76271319  0.97243198    -0.00800
C365        C  0.38123981  0.72580668  0.98692300    -0.23700
C366        C  0.38065456  0.72957703  0.02485601    -0.23900
C367        C  0.38491628  0.76860474  0.03290964    -0.00900
H368        H  0.37426601  0.69947046  0.97156265     0.12800
H369        H  0.37456245  0.70645166  0.04435154     0.12900
N370        N  0.51182324  0.81648109  0.35239635    -0.03400
C371        C  0.54272104  0.79699102  0.34662369    -0.00800
C372        C  0.53475824  0.76147113  0.33008442    -0.23700
C373        C  0.49850495  0.75815433  0.32562484    -0.23900
C374        C  0.48488176  0.79199782  0.33888048    -0.00900
H375        H  0.55372758  0.74093633  0.32034076     0.12800
H376        H  0.48381314  0.73499800  0.31096204     0.12900
N377        N  0.12828879  0.69759548  0.49577372    -0.03400
C378        C  0.13316447  0.71954917  0.46451685    -0.00800
C379        C  0.13124053  0.75836570  0.47294901    -0.23700
C380        C  0.12551901  0.76080648  0.51060820    -0.23900
C381        C  0.12539335  0.72347936  0.52430224    -0.00900
H382        H  0.13697744  0.78244770  0.45443491     0.12800
H383        H  0.12738717  0.78721641  0.52700408     0.12900
N384        N  0.68583655  0.85834873  0.00135304    -0.03400
C385        C  0.70348428  0.84203811  0.97234200    -0.00800
C386        C  0.73368879  0.82437606  0.98461569    -0.23700
C387        C  0.73496924  0.82925738  0.02243089    -0.23900
C388        C  0.70607472  0.85078005  0.03218992    -0.00900
H389        H  0.75211749  0.80843427  0.96782690     0.12800
H390        H  0.75503905  0.81836564  0.04106008     0.12900
N391        N  0.13995560  0.31859479  0.50467304    -0.03400
C392        C  0.15160399  0.29422459  0.47762104    -0.00800
C393        C  0.15725059  0.25821179  0.49244527    -0.23700
C394        C  0.15057756  0.26053515  0.52987642    -0.23900
C395        C  0.14021411  0.29766449  0.53703181    -0.00900
H396        H  0.16943414  0.23435129  0.47838649     0.12800
H397        H  0.15563016  0.23844365  0.55027815     0.12900
N398        N  0.99434098  0.36530722  0.82580366    -0.03400
C399        C  0.96593105  0.36118351  0.80164975    -0.00800
C400        C  0.97745224  0.35163425  0.76626886    -0.23700
C401        C  0.01376506  0.34891912  0.76828730    -0.23900
C402        C  0.02380142  0.35761958  0.80468297    -0.00900
H403        H  0.96071379  0.34370023  0.74240713     0.12800
H404        H  0.03096674  0.33972006  0.74594599     0.12900
N405        N  0.14741058  0.00993191  0.68039316    -0.03400
C406        C  0.16887225  0.98239422  0.69510795    -0.00800
C407        C  0.19284409  0.99857576  0.72077023    -0.23700
C408        C  0.18743636  0.03696315  0.72196028    -0.23900
C409        C  0.15918698  0.04373509  0.69815572    -0.00900
H410        H  0.21273291  0.98376528  0.73669014     0.12800
H411        H  0.20228593  0.05804257  0.73912781     0.12900
N412        N  0.49025003  0.16495716  0.67693886    -0.03400
C413        C  0.52014882  0.17632551  0.69731395    -0.00800
C414        C  0.51089487  0.19410321  0.73026835    -0.23700
C415        C  0.47447769  0.19324463  0.73137661    -0.23900
C416        C  0.46216159  0.17638676  0.69836155    -0.00900
H417        H  0.52890188  0.20734863  0.75090665     0.12800
H418        H  0.45849082  0.20675298  0.75255166     0.12900
N419        N  0.37374028  0.48410372  0.82491986    -0.03400
C420        C  0.37392819  0.51034829  0.79616902    -0.00800
C421        C  0.38533373  0.49284651  0.76359567    -0.23700
C422        C  0.38537204  0.45412466  0.77028263    -0.23900
C423        C  0.37563242  0.44920387  0.80712744    -0.00900
H424        H  0.38712363  0.50587473  0.73619184     0.12800
H425        H  0.38638010  0.43179450  0.74904594     0.12900
N426        N  0.83804760  0.01035515  0.68136509    -0.03400
C427        C  0.83297410  0.97993914  0.70540608    -0.00800
C428        C  0.82724546  0.99281879  0.74136498    -0.23700
C429        C  0.82578253  0.03186429  0.73973840    -0.23900
C430        C  0.83231029  0.04246412  0.70311722    -0.00900
H431        H  0.81895953  0.97524486  0.76501294     0.12800
H432        H  0.81731617  0.05026064  0.76231743     0.12900
N433        N  0.99626893  0.66290926  0.82653303    -0.03400
C434        C  0.96660909  0.67614980  0.80866252    -0.00800
C435        C  0.97654713  0.70354582  0.78237237    -0.23700
C436        C  0.01292059  0.70714035  0.78282514    -0.23900
C437        C  0.02488866  0.68296900  0.81035427    -0.00900
H438        H  0.95893057  0.71874995  0.76401120     0.12800
H439        H  0.02920264  0.72582880  0.76490861     0.12900
N440        N  0.48876114  0.81148736  0.65399991    -0.03400
C441        C  0.51898592  0.79048261  0.65613288    -0.00800
C442        C  0.51021803  0.75252246  0.66517617    -0.23700
C443        C  0.47420282  0.74990995  0.67099463    -0.23900
C444        C  0.46118174  0.78587412  0.66381209    -0.00900
H445        H  0.52877394  0.73036876  0.67180662     0.12800
H446        H  0.45929190  0.72488217  0.68174962     0.12900
N447        N  0.63700863  0.50316783  0.80154476    -0.03400
C448        C  0.63575169  0.53053444  0.77428972    -0.00800
C449        C  0.63180891  0.51343908  0.73947398    -0.23700
C450        C  0.63423824  0.47469856  0.74451678    -0.23900
C451        C  0.63808871  0.46874970  0.78254266    -0.00900
H452        H  0.63418613  0.52792350  0.71279307     0.12800
H453        H  0.63744747  0.45377940  0.72231331     0.12900
N454        N  0.87042898  0.68375272  0.50063833    -0.03400
C455        C  0.86527673  0.70105157  0.53449260    -0.00800
C456        C  0.85768337  0.73944955  0.52971443    -0.23700
C457        C  0.85812876  0.74626390  0.49208552    -0.23900
C458        C  0.86589301  0.71184113  0.47489018    -0.00900
H459        H  0.84997472  0.75955850  0.55121351     0.12800
H460        H  0.85027379  0.77244432  0.47850254     0.12900
C461        C  0.17392656  0.30635588  0.37516640    -0.01800
C462        C  0.21149785  0.30171898  0.37672462     0.07900
C463        C  0.22926237  0.30681472  0.41146816    -0.01900
C464        C  0.20943896  0.30755191  0.44468004    -0.01900
C465        C  0.17155831  0.30619321  0.44344392     0.08000
C466        C  0.15408664  0.30874510  0.40866425    -0.02100
Br467      Br  0.10282440  0.31276736  0.40702580    -0.00700
Br468      Br  0.14865293  0.30697440  0.32801784    -0.00700
Br469      Br  0.23461611  0.30686403  0.49198082    -0.00700
Br470      Br  0.28105982  0.31190530  0.41391916    -0.00700
C471        C  0.33290933  0.36524933  0.21464714    -0.01800
C472        C  0.32585992  0.33687310  0.18687999     0.07900
C473        C  0.33241644  0.34652919  0.14908217    -0.01900
C474        C  0.33984184  0.38537574  0.13871011    -0.01900
C475        C  0.34086915  0.41475975  0.16607305     0.08000
C476        C  0.33968326  0.40415177  0.20430965    -0.02100
Br477      Br  0.34198824  0.44379381  0.24267434    -0.00700
Br478      Br  0.32988018  0.35189673  0.26676162    -0.00700
Br479      Br  0.34438970  0.39896128  0.08681019    -0.00700
Br480      Br  0.32953582  0.30643254  0.11138078    -0.00700
C481        C  0.41872882  0.20911634  0.28354950    -0.01800
C482        C  0.38785719  0.18571311  0.29146021     0.07900
C483        C  0.39198997  0.14689278  0.30246367    -0.01900
C484        C  0.42653220  0.13162003  0.30482728    -0.01900
C485        C  0.45718143  0.15424956  0.29449961     0.08000
C486        C  0.45290917  0.19335461  0.28398350    -0.02100
Br487      Br  0.49350677  0.22598009  0.26860462    -0.00700
Br488      Br  0.41441221  0.26352521  0.27291397    -0.00700
Br489      Br  0.43175230  0.07912861  0.32079441    -0.00700
Br490      Br  0.35029896  0.11319539  0.31083012    -0.00700
C491        C  0.35134826  0.19208321  0.12012644    -0.01800
C492        C  0.31622283  0.18127599  0.13146091     0.07900
C493        C  0.29344961  0.16009065  0.10684784    -0.01900
C494        C  0.30189496  0.15829020  0.06884041    -0.01900
C495        C  0.33619219  0.17120453  0.05641326     0.08000
C496        C  0.36172204  0.18578316  0.08273418    -0.02100
Br497      Br  0.40941624  0.20107078  0.06699579    -0.00700
Br498      Br  0.38368380  0.21916948  0.15448570    -0.00700
Br499      Br  0.26365909  0.14554689  0.03388956    -0.00700
Br500      Br  0.24918775  0.13650520  0.12518201    -0.00700
C501        C  0.11332103  0.28288366  0.21991100    -0.01800
C502        C  0.14553502  0.30462850  0.21409625     0.07900
C503        C  0.14426396  0.34387171  0.20386087    -0.01900
C504        C  0.11111372  0.36184640  0.20163808    -0.01900
C505        C  0.07881920  0.34073257  0.20938339     0.08000
C506        C  0.08022551  0.30075188  0.21777778    -0.02100
Br507      Br  0.03715778  0.27003571  0.22880281    -0.00700
Br508      Br  0.11444806  0.22824495  0.23058620    -0.00700
Br509      Br  0.11092618  0.41613989  0.19089229    -0.00700
Br510      Br  0.18829180  0.37415446  0.19595729    -0.00700
C511        C  0.16349792  0.09683095  0.30905353    -0.01800
C512        C  0.16754752  0.08413877  0.34634933     0.07900
C513        C  0.17932945  0.11241863  0.37284459    -0.01900
C514        C  0.19573458  0.14778242  0.36121366    -0.01900
C515        C  0.19921924  0.15602764  0.32278939     0.08000
C516        C  0.18035708  0.13195221  0.29690450    -0.02100
Br517      Br  0.18086508  0.14465271  0.24451467    -0.00700
Br518      Br  0.13718755  0.06463891  0.27392034    -0.00700
Br519      Br  0.21428456  0.18459048  0.39813197    -0.00700
Br520      Br  0.17326321  0.10331889  0.42519414    -0.00700
C521        C  0.92407634  0.03740290  0.35609635    -0.01800
C522        C  0.88860708  0.02119716  0.35258025     0.07900
C523        C  0.87418426  0.99999458  0.38345850    -0.01900
C524        C  0.89370250  0.99825763  0.41742275    -0.01900
C525        C  0.92777416  0.01717885  0.42133649     0.08000
C526        C  0.94215696  0.03808572  0.39075823    -0.02100
Br527      Br  0.98727440  0.06751115  0.39546050    -0.00700
Br528      Br  0.95152279  0.05157103  0.31233637    -0.00700
Br529      Br  0.87249326  0.97195653  0.45972752    -0.00700
Br530      Br  0.82908685  0.97060297  0.38027097    -0.00700
C531        C  0.11019399  0.01306517  0.44587613    -0.01800
C532        C  0.07474263  0.00243489  0.43485391     0.07900
C533        C  0.06843468  0.99173130  0.39695925    -0.01900
C534        C  0.09668157  0.99440343  0.37038457    -0.01900
C535        C  0.13213361  0.00425601  0.38185729     0.08000
C536        C  0.13883882  0.01024445  0.42046154    -0.02100
Br537      Br  0.18741510  0.01086972  0.43942830    -0.00700
Br538      Br  0.11985090  0.03369706  0.49522104    -0.00700
Br539      Br  0.08702834  0.98389338  0.31846806    -0.00700
Br540      Br  0.02096236  0.97470679  0.38090657    -0.00700
C541        C  0.91554518  0.03615696  0.61674342    -0.01800
C542        C  0.91240070  0.00804963  0.58782186     0.07900
C543        C  0.88240557  0.98126985  0.58933908    -0.01900
C544        C  0.85563573  0.98475362  0.61735418    -0.01900
C545        C  0.86194590  0.00963349  0.64879574     0.08000
C546        C  0.89438898  0.03224444  0.64901261    -0.02100
Br547      Br  0.91632766  0.04905963  0.69524507    -0.00700
Br548      Br  0.94758031  0.08147487  0.61395842    -0.00700
Br549      Br  0.81045238  0.95654835  0.61012969    -0.00700
Br550      Br  0.87673153  0.93990920  0.55315684    -0.00700
C551        C  0.08295623  0.01242479  0.66039694    -0.01800
C552        C  0.11890774  0.00394637  0.65235719     0.07900
C553        C  0.12604319  0.98791204  0.61661417    -0.01900
C554        C  0.09824530  0.98034430  0.59023625    -0.01900
C555        C  0.06366922  0.99318491  0.59685893     0.08000
C556        C  0.05580451  0.00733647  0.63277587    -0.02100
Br557      Br  0.00671661  0.01515384  0.64536345    -0.00700
Br558      Br  0.06984356  0.02982929  0.70933280    -0.00700
Br559      Br  0.10714255  0.95048893  0.54576411    -0.00700
Br560      Br  0.17412834  0.98186240  0.60010682    -0.00700
C561        C  0.75495849  0.35423160  0.42578997    -0.01800
C562        C  0.77353576  0.39023666  0.43161415     0.07900
C563        C  0.79370602  0.40725820  0.40233806    -0.01900
C564        C  0.79874286  0.38613049  0.36899928    -0.01900
C565        C  0.77963800  0.35048717  0.36323375     0.08000
C566        C  0.75540878  0.33665116  0.39069967    -0.02100
Br567      Br  0.72056252  0.29517531  0.38045551    -0.00700
Br568      Br  0.73145616  0.32597984  0.46620745    -0.00700
Br569      Br  0.83450317  0.40382856  0.33366176    -0.00700
Br570      Br  0.81579654  0.45813890  0.40885945    -0.00700
C571        C  0.70409479  0.37379675  0.15368235    -0.01800
C572        C  0.71516430  0.36663984  0.19099623     0.07900
C573        C  0.70065520  0.38993821  0.21950309    -0.01900
C574        C  0.68560059  0.42524328  0.20992921    -0.01900
C575        C  0.68568015  0.43784085  0.17255191     0.08000
C576        C  0.68843262  0.40900804  0.14498681    -0.02100
Br577      Br  0.66098141  0.41244454  0.09985892    -0.00700
Br578      Br  0.70622823  0.33488037  0.11474019    -0.00700
Br579      Br  0.66876269  0.45919229  0.24802190    -0.00700
Br580      Br  0.69909001  0.37385987  0.27114580    -0.00700
C581        C  0.66354845  0.21175676  0.09715391    -0.01800
C582        C  0.67759776  0.18655485  0.06996297     0.07900
C583        C  0.70182918  0.15871226  0.08197441    -0.01900
C584        C  0.71695696  0.16151415  0.11814439    -0.01900
C585        C  0.70441341  0.18861834  0.14364562     0.08000
C586        C  0.67386934  0.20877808  0.13470470    -0.02100
Br587      Br  0.65201440  0.23913165  0.17318929    -0.00700
Br588      Br  0.63816944  0.25700071  0.08359821    -0.00700
Br589      Br  0.75874442  0.13342105  0.13082991    -0.00700
Br590      Br  0.72008800  0.12172304  0.04769968    -0.00700
C591        C  0.80317612  0.13191173  0.32706391    -0.01800
C592        C  0.81382580  0.16226975  0.30324744     0.07900
C593        C  0.84816931  0.16314852  0.28738396    -0.01900
C594        C  0.86977922  0.13102286  0.29113008    -0.01900
C595        C  0.85647857  0.09712748  0.30962862     0.08000
C596        C  0.82427549  0.09946461  0.33025070    -0.02100
Br597      Br  0.80646546  0.05881491  0.36174078    -0.00700
Br598      Br  0.75826955  0.13395650  0.35381961    -0.00700
Br599      Br  0.91730452  0.13372023  0.27007403    -0.00700
Br600      Br  0.86556354  0.20866998  0.26111729    -0.00700
C601        C  0.59418991  0.18234195  0.32331327    -0.01800
C602        C  0.58749285  0.14527082  0.30708199     0.07900
C603        C  0.61715851  0.12527476  0.29328510    -0.01900
C604        C  0.65187544  0.14302519  0.29328463    -0.01900
C605        C  0.65735671  0.18138563  0.30575957     0.08000
C606        C  0.62878673  0.20039302  0.32232732    -0.02100
Br607      Br  0.63582833  0.25330783  0.33944979    -0.00700
Br608      Br  0.55578364  0.21180236  0.34213564    -0.00700
Br609      Br  0.69210952  0.11524942  0.27502512    -0.00700
Br610      Br  0.61068305  0.07496762  0.27049668    -0.00700
C611        C  0.88761626  0.37867719  0.20720812    -0.01800
C612        C  0.87760833  0.34024184  0.19751649     0.07900
C613        C  0.90376467  0.31579848  0.18352675    -0.01900
C614        C  0.93989695  0.32880888  0.18199956    -0.01900
C615        C  0.95091928  0.36554092  0.19637175     0.08000
C616        C  0.92420090  0.39103100  0.20749069    -0.02100
Br617      Br  0.93742113  0.44228529  0.22510726    -0.00700
Br618      Br  0.85108220  0.41423900  0.21973910    -0.00700
Br619      Br  0.97403805  0.29359372  0.16383019    -0.00700
Br620      Br  0.89131674  0.26236968  0.17050238    -0.00700
C621        C  0.15262563  0.71601885  0.36091497    -0.01800
C622        C  0.18649084  0.70014936  0.36171288     0.07900
C623        C  0.19980051  0.68417113  0.39440422    -0.01900
C624        C  0.18052257  0.68711773  0.42769775    -0.01900
C625        C  0.14763925  0.70614506  0.42830821     0.08000
C626        C  0.13335024  0.71970773  0.39421849    -0.02100
Br627      Br  0.08935984  0.74684024  0.39241666    -0.00700
Br628      Br  0.13383261  0.73438979  0.31409116    -0.00700
Br629      Br  0.20370360  0.67068682  0.47227744    -0.00700
Br630      Br  0.24684865  0.66264651  0.39416676    -0.00700
C631        C  0.38335601  0.79322267  0.33394986    -0.01800
C632        C  0.37855649  0.79935576  0.29535118     0.07900
C633        C  0.40834671  0.81111967  0.27356630    -0.01900
C634        C  0.44312536  0.80995176  0.28826230    -0.01900
C635        C  0.44846073  0.80224510  0.32659620     0.08000
C636        C  0.41828665  0.79546255  0.34971272    -0.02100
Br637      Br  0.42496488  0.78720550  0.40233554    -0.00700
Br638      Br  0.34216552  0.78170792  0.36482289    -0.00700
Br639      Br  0.48348043  0.81648812  0.25465106    -0.00700
Br640      Br  0.40186633  0.83096713  0.22398805    -0.00700
C641        C  0.37955841  0.76764509  0.13842781    -0.01800
C642        C  0.35182717  0.79325707  0.14466350     0.07900
C643        C  0.34125407  0.81750901  0.11573241    -0.01900
C644        C  0.35313851  0.81099337  0.07905651    -0.01900
C645        C  0.37947651  0.78366415  0.07174307     0.08000
C646        C  0.39426767  0.76390147  0.10249925    -0.02100
Br647      Br  0.43248425  0.72853157  0.09589605    -0.00700
Br648      Br  0.39631646  0.73600896  0.17882608    -0.00700
Br649      Br  0.32623889  0.83338644  0.03968514    -0.00700
Br650      Br  0.30667067  0.85638235  0.12527414    -0.00700
C651        C  0.11308288  0.73085993  0.18034966    -0.01800
C652        C  0.08957043  0.69823354  0.18730101     0.07900
C653        C  0.10433562  0.66479024  0.20231638    -0.01900
C654        C  0.14019428  0.66599855  0.21555547    -0.01900
C655        C  0.16246433  0.70004385  0.21157360     0.08000
C656        C  0.14953965  0.73072321  0.19059788    -0.02100
Br657      Br  0.18191774  0.77275448  0.17564330    -0.00700
Br658      Br  0.09508480  0.77854676  0.16139750    -0.00700
Br659      Br  0.15677538  0.62206141  0.24276290    -0.00700
Br660      Br  0.07468057  0.61852390  0.20906578    -0.00700
C661        C  0.31628945  0.58643727  0.14408432    -0.01800
C662        C  0.33890955  0.55898183  0.16019353     0.07900
C663        C  0.36087969  0.57103455  0.19092454    -0.01900
C664        C  0.35556856  0.60670517  0.20903774    -0.01900
C665        C  0.33006006  0.63153749  0.19512483     0.08000
C666        C  0.31307065  0.62296317  0.16083585    -0.02100
Br667      Br  0.28125225  0.65987430  0.13988463    -0.00700
Br668      Br  0.28412791  0.57275076  0.10331703    -0.00700
Br669      Br  0.37950650  0.61952473  0.25566073    -0.00700
Br670      Br  0.39414740  0.53697556  0.21264539    -0.00700
C671        C  0.19880017  0.87485432  0.34223143    -0.01800
C672        C  0.20307843  0.87020872  0.30327928     0.07900
C673        C  0.19026058  0.89865654  0.27939141    -0.01900
C674        C  0.17787888  0.93354483  0.29413774    -0.01900
C675        C  0.17760791  0.94060840  0.33325298     0.08000
C676        C  0.18550201  0.90957730  0.35702957    -0.02100
Br677      Br  0.17989347  0.91528714  0.41005387    -0.00700
Br678      Br  0.21449499  0.83529903  0.37541737    -0.00700
Br679      Br  0.16618265  0.97360945  0.25987960    -0.00700
Br680      Br  0.19211999  0.89064017  0.22593746    -0.00700
C681        C  0.80866885  0.69964064  0.38858861    -0.01800
C682        C  0.83351336  0.70996720  0.36064550     0.07900
C683        C  0.87021582  0.71500722  0.36953547    -0.01900
C684        C  0.88177685  0.71142908  0.40683087    -0.01900
C685        C  0.85631279  0.70487666  0.43532499     0.08000
C686        C  0.81968112  0.69882896  0.42602050    -0.02100
Br687      Br  0.78382510  0.69296653  0.46473981    -0.00700
Br688      Br  0.75846673  0.69241410  0.37586429    -0.00700
Br689      Br  0.93177825  0.71965695  0.41911774    -0.00700
Br690      Br  0.90371518  0.73181849  0.33143095    -0.00700
C691        C  0.72109319  0.60770261  0.14776985    -0.01800
C692        C  0.70877740  0.58144624  0.17525377     0.07900
C693        C  0.70531046  0.59527911  0.21248323    -0.01900
C694        C  0.71616814  0.63368788  0.22236426    -0.01900
C695        C  0.73130555  0.65889289  0.19537763     0.08000
C696        C  0.73170012  0.64620461  0.15741634    -0.02100
Br697      Br  0.75005936  0.67963546  0.11799092    -0.00700
Br698      Br  0.72851609  0.58956051  0.09752582    -0.00700
Br699      Br  0.71039005  0.65165743  0.27310842    -0.00700
Br700      Br  0.69020308  0.56028953  0.25158307    -0.00700
C701        C  0.73275369  0.87590924  0.13035683    -0.01800
C702        C  0.70857847  0.85081260  0.14898653     0.07900
C703        C  0.67616343  0.83923531  0.13156257    -0.01900
C704        C  0.67213396  0.84416844  0.09270055    -0.01900
C705        C  0.70043400  0.86203737  0.07187922     0.08000
C706        C  0.72980136  0.88025858  0.09153320    -0.02100
Br707      Br  0.77039043  0.90394332  0.06552553    -0.00700
Br708      Br  0.77402727  0.89713053  0.15744055    -0.00700
Br709      Br  0.63141570  0.81916264  0.06840016    -0.00700
Br710      Br  0.63979754  0.81231582  0.16074248    -0.00700
C711        C  0.64215952  0.78776651  0.35849051    -0.01800
C712        C  0.65529930  0.81142007  0.32883275     0.07900
C713        C  0.63209142  0.83799971  0.31290427    -0.01900
C714        C  0.59551806  0.83791379  0.32333633    -0.01900
C715        C  0.58129767  0.81100401  0.34960029     0.08000
C716        C  0.60555040  0.78718203  0.36821037    -0.02100
Br717      Br  0.58828439  0.74888486  0.40360200    -0.00700
Br718      Br  0.67260215  0.75219771  0.38395203    -0.00700
Br719      Br  0.56449414  0.87174636  0.29773073    -0.00700
Br720      Br  0.65007760  0.87446298  0.27618090    -0.00700
C721        C  0.78819793  0.92395756  0.28522163    -0.01800
C722        C  0.80443770  0.88904992  0.29346276     0.07900
C723        C  0.84160038  0.88962335  0.30176362    -0.01900
C724        C  0.86203597  0.92487432  0.30272903    -0.01900
C725        C  0.84572382  0.95967914  0.29474003     0.08000
C726        C  0.80863565  0.95910523  0.28593695    -0.02100
Br727      Br  0.78533954  0.00644665  0.27453927    -0.00700
Br728      Br  0.73785393  0.92396559  0.27298298    -0.00700
Br729      Br  0.91246611  0.92579572  0.31475539    -0.00700
Br730      Br  0.86550214  0.84184253  0.30838051    -0.00700
C731        C  0.89687721  0.71396481  0.15767071    -0.01800
C732        C  0.87767019  0.70432255  0.19064997     0.07900
C733        C  0.89534528  0.68409004  0.21894224    -0.01900
C734        C  0.93282123  0.68211866  0.21865898    -0.01900
C735        C  0.95277127  0.69423711  0.18689167     0.08000
C736        C  0.93420062  0.70810746  0.15559278    -0.02100
Br737      Br  0.96074692  0.72479320  0.11211261    -0.00700
Br738      Br  0.87340949  0.73841272  0.11656053    -0.00700
Br739      Br  0.95669768  0.66813771  0.26457479    -0.00700
Br740      Br  0.86829376  0.65917439  0.25867587    -0.00700
C741        C  0.29543375  0.37902793  0.82214106    -0.01800
C742        C  0.31142309  0.34297236  0.81835737     0.07900
C743        C  0.34922638  0.34233805  0.81598982    -0.01900
C744        C  0.37044762  0.37723356  0.81582270    -0.01900
C745        C  0.35424575  0.41329391  0.81739256     0.08000
C746        C  0.31645748  0.41384916  0.82068775    -0.02100
Br747      Br  0.29206762  0.46191590  0.81974511    -0.00700
Br748      Br  0.24398557  0.38151255  0.82587579    -0.00700
Br749      Br  0.42195123  0.37589576  0.81152815    -0.00700
Br750      Br  0.37229859  0.29378047  0.81293525    -0.00700
C751        C  0.36145284  0.16490993  0.69795147    -0.01800
C752        C  0.35292343  0.20415210  0.69635398     0.07900
C753        C  0.37959631  0.23229959  0.68705553    -0.01900
C754        C  0.41522775  0.22185456  0.68232300    -0.01900
C755        C  0.42465772  0.18292637  0.68695152     0.08000
C756        C  0.39738969  0.15434904  0.69368775    -0.02100
Br757      Br  0.41000921  0.10171059  0.70173218    -0.00700
Br758      Br  0.32432499  0.12630860  0.70915573    -0.00700
Br759      Br  0.45199550  0.26215015  0.67433974    -0.00700
Br760      Br  0.36753146  0.28584744  0.68335032    -0.00700
C761        C  0.14079381  0.10371308  0.73053116    -0.01800
C762        C  0.14673102  0.08425649  0.69598625     0.07900
C763        C  0.15471949  0.10710011  0.66428216    -0.01900
C764        C  0.16258498  0.14718121  0.66848696    -0.01900
C765        C  0.16490870  0.16420362  0.70443356     0.08000
C766        C  0.14969639  0.14362246  0.73464952    -0.02100
Br767      Br  0.14319942  0.16901558  0.78216162    -0.00700
Br768      Br  0.12690308  0.07457534  0.77451687    -0.00700
Br769      Br  0.17063345  0.17935091  0.62514094    -0.00700
Br770      Br  0.16050720  0.08367851  0.61603082    -0.00700
C771        C  0.07006819  0.32223837  0.84125346    -0.01800
C772        C  0.06170368  0.35309637  0.81733971     0.07900
C773        C  0.08992962  0.37142032  0.79659500    -0.01900
C774        C  0.12452581  0.35678904  0.79697851    -0.01900
C775        C  0.13141124  0.32350092  0.81759829     0.08000
C776        C  0.10476674  0.30750268  0.84122371    -0.02100
Br777      Br  0.11495127  0.26230096  0.87009132    -0.00700
Br778      Br  0.03345360  0.29563436  0.86990516    -0.00700
Br779      Br  0.16200879  0.38042795  0.76662178    -0.00700
Br780      Br  0.08106467  0.41381563  0.76359426    -0.00700
C781        C  0.17487719  0.34088509  0.62781658    -0.01800
C782        C  0.16132185  0.31200294  0.65158184     0.07900
C783        C  0.13108001  0.28931570  0.64063866    -0.01900
C784        C  0.11942663  0.28969335  0.60320642    -0.01900
C785        C  0.13874434  0.31238166  0.57643145     0.08000
C786        C  0.16508275  0.34004788  0.58976368    -0.02100
Br787      Br  0.19408835  0.37110707  0.55668765    -0.00700
Br788      Br  0.21050278  0.37787335  0.64730923    -0.00700
Br789      Br  0.08072403  0.25420513  0.58847084    -0.00700
Br790      Br  0.10913553  0.25400581  0.67623496    -0.00700
C791        C  0.27726123  0.14997001  0.88648357    -0.01800
C792        C  0.29754158  0.17363181  0.86162756     0.07900
C793        C  0.33508020  0.16988598  0.86067200    -0.01900
C794        C  0.35184979  0.15174221  0.89074983    -0.01900
C795        C  0.33152077  0.13988945  0.92198672     0.08000
C796        C  0.29498489  0.13088239  0.91528364    -0.02100
Br797      Br  0.26931815  0.09615399  0.94812915    -0.00700
Br798      Br  0.22593667  0.14326435  0.88089097    -0.00700
Br799      Br  0.40165442  0.14081911  0.88851358    -0.00700
Br800      Br  0.36382209  0.18934631  0.81967838    -0.00700
C801        C  0.77589192  0.38224761  0.63353101    -0.01800
C802        C  0.79154048  0.34588505  0.63525927     0.07900
C803        C  0.80998123  0.33228813  0.60394859    -0.01900
C804        C  0.80541621  0.34955476  0.56903239    -0.01900
C805        C  0.78716178  0.38436545  0.56597331     0.08000
C806        C  0.77429390  0.40174917  0.59914632    -0.02100
Br807      Br  0.75096816  0.45057132  0.59809156    -0.00700
Br808      Br  0.75365896  0.40455640  0.67699846    -0.00700
Br809      Br  0.81658560  0.31898255  0.52620753    -0.00700
Br810      Br  0.84024118  0.28840929  0.60838465    -0.00700
C811        C  0.68356018  0.43099223  0.81875083    -0.01800
C812        C  0.65202675  0.43146451  0.79649489     0.07900
C813        C  0.64018105  0.39656463  0.77836970    -0.01900
C814        C  0.66281077  0.36520338  0.77620016    -0.01900
C815        C  0.69663357  0.36766838  0.79365695     0.08000
C816        C  0.70568543  0.39919094  0.81721308    -0.02100
Br817      Br  0.74962976  0.39961181  0.84606144    -0.00700
Br818      Br  0.69867395  0.47290677  0.85100477    -0.00700
Br819      Br  0.64724020  0.31850993  0.74989575    -0.00700
Br820      Br  0.59306977  0.39132557  0.75590010    -0.00700
C821        C  0.83622097  0.11441535  0.71444034    -0.01800
C822        C  0.82467597  0.08276635  0.69102797     0.07900
C823        C  0.79757315  0.08902580  0.66412687    -0.01900
C824        C  0.77899486  0.12372830  0.66453804    -0.01900
C825        C  0.78804888  0.15296858  0.69095216     0.08000
C826        C  0.81846642  0.14940263  0.71359124    -0.02100
Br827      Br  0.83608103  0.19302821  0.74319512    -0.00700
Br828      Br  0.87414507  0.11000177  0.75094323    -0.00700
Br829      Br  0.73904029  0.12986313  0.63086442    -0.00700
Br830      Br  0.78269737  0.04960111  0.62866174    -0.00700
C831        C  0.58254628  0.15637224  0.71133041    -0.01800
C832        C  0.55850137  0.17390339  0.68657081     0.07900
C833        C  0.57261287  0.19614354  0.65657338    -0.01900
C834        C  0.61004393  0.20371399  0.65353449    -0.01900
C835        C  0.63359863  0.18808410  0.68007357     0.08000
C836        C  0.61959533  0.16043634  0.70554826    -0.02100
Br837      Br  0.65125849  0.12842334  0.73355703    -0.00700
Br838      Br  0.56651387  0.13226071  0.75740692    -0.00700
Br839      Br  0.62786186  0.23760753  0.61440555    -0.00700
Br840      Br  0.54090036  0.22240967  0.62367390    -0.00700
C841        C  0.71554657  0.17581222  0.91501893    -0.01800
C842        C  0.68140628  0.18303818  0.93009127     0.07900
C843        C  0.65195885  0.18674684  0.90576898    -0.01900
C844        C  0.65767122  0.18858810  0.86692111    -0.01900
C845        C  0.69248152  0.18580974  0.85257172     0.08000
C846        C  0.72064425  0.17594381  0.87620808    -0.02100
Br847      Br  0.76787593  0.17012113  0.85548752    -0.00700
Br848      Br  0.75664811  0.17032865  0.94740588    -0.00700
Br849      Br  0.61920557  0.20078931  0.83343088    -0.00700
Br850      Br  0.60501401  0.19515532  0.92527995    -0.00700
C851        C  0.86543619  0.36865054  0.80473120    -0.01800
C852        C  0.85438722  0.32939852  0.80893077     0.07900
C853        C  0.88009004  0.30205271  0.81700958    -0.01900
C854        C  0.91671059  0.31274898  0.81528186    -0.01900
C855        C  0.92804358  0.35206077  0.81168842     0.08000
C856        C  0.90209550  0.38017352  0.80804875    -0.02100
Br857      Br  0.91695410  0.43399961  0.80489690    -0.00700
Br858      Br  0.83077022  0.40624780  0.79263519    -0.00700
Br859      Br  0.95104592  0.27253843  0.81341354    -0.00700
Br860      Br  0.86554601  0.24896606  0.82745671    -0.00700
C861        C  0.19217290  0.72169167  0.60379916    -0.01800
C862        C  0.17090444  0.70628651  0.63287622     0.07900
C863        C  0.13476112  0.69480392  0.62618199    -0.01900
C864        C  0.11952791  0.70041188  0.59054926    -0.01900
C865        C  0.14059078  0.71714274  0.56180453     0.08000
C866        C  0.17711320  0.72785846  0.56862611    -0.02100
Br867      Br  0.20742996  0.75130702  0.53044906    -0.00700
Br868      Br  0.24271493  0.73338952  0.61203635    -0.00700
Br869      Br  0.06999078  0.68578141  0.58100646    -0.00700
Br870      Br  0.10635988  0.67190648  0.66574092    -0.00700
C871        C  0.37980448  0.81932545  0.71755541    -0.01800
C872        C  0.35407204  0.78958212  0.70800849     0.07900
C873        C  0.36183369  0.76423066  0.67831184    -0.01900
C874        C  0.39544308  0.76687579  0.66031036    -0.01900
C875        C  0.42288141  0.79360336  0.67292642     0.08000
C876        C  0.41447771  0.81971608  0.70185630    -0.02100
Br877      Br  0.45131920  0.85093064  0.72626013    -0.00700
Br878      Br  0.36935897  0.85835254  0.75453114    -0.00700
Br879      Br  0.40446547  0.73064157  0.62040319    -0.00700
Br880      Br  0.32670937  0.72519930  0.66192832    -0.00700
C881        C  0.12106778  0.72052005  0.81070993    -0.01800
C882        C  0.13741418  0.68907509  0.79323984     0.07900
C883        C  0.11899000  0.65209302  0.79466973    -0.01900
C884        C  0.08321550  0.64853484  0.80768881    -0.01900
C885        C  0.06455293  0.68166780  0.81740028     0.08000
C886        C  0.08463841  0.71736213  0.82104798    -0.02100
Br887      Br  0.06158512  0.76399597  0.83601155    -0.00700
Br888      Br  0.14815948  0.76833342  0.82127969    -0.00700
Br889      Br  0.05950327  0.59816247  0.80902678    -0.00700
Br890      Br  0.14041505  0.60546566  0.77678346    -0.00700
C891        C  0.33471672  0.61117282  0.80806317    -0.01800
C892        C  0.31068101  0.61153241  0.77761738     0.07900
C893        C  0.30633724  0.57867626  0.75455814    -0.01900
C894        C  0.32409876  0.54478601  0.76289515    -0.01900
C895        C  0.34957049  0.54410914  0.79296552     0.08000
C896        C  0.35386943  0.57774414  0.81589780    -0.02100
Br897      Br  0.38559080  0.58011522  0.85828082    -0.00700
Br898      Br  0.34188419  0.65695200  0.83900515    -0.00700
Br899      Br  0.31062309  0.49955849  0.73265884    -0.00700
Br900      Br  0.27856261  0.58142961  0.70873841    -0.00700
C901        C  0.30916314  0.76498447  0.90067750    -0.01800
C902        C  0.32844017  0.77178678  0.86756009     0.07900
C903        C  0.36602859  0.77794840  0.86895076    -0.01900
C904        C  0.38443395  0.77619728  0.90342830    -0.01900
C905        C  0.36516170  0.76924217  0.93662080     0.08000
C906        C  0.32731698  0.76336909  0.93502923    -0.02100
Br907      Br  0.29975315  0.75192847  0.97958661    -0.00700
Br908      Br  0.25753962  0.75756306  0.89873982    -0.00700
Br909      Br  0.43601830  0.78110635  0.90519459    -0.00700
Br910      Br  0.39224983  0.78786554  0.82360292    -0.00700
C911        C  0.20287402  0.92561975  0.67542351    -0.01800
C912        C  0.16981339  0.93999484  0.68762504     0.07900
C913        C  0.14529330  0.91435802  0.70616238    -0.01900
C914        C  0.15577831  0.87717831  0.71708301    -0.01900
C915        C  0.18998972  0.86461537  0.70731052     0.08000
C916        C  0.21151192  0.88742245  0.68300186    -0.02100
Br917      Br  0.25485866  0.86726904  0.66237265    -0.00700
Br918      Br  0.24076159  0.95986509  0.65604348    -0.00700
Br919      Br  0.12513669  0.84580865  0.74916636    -0.00700
Br920      Br  0.09965310  0.93212332  0.72199702    -0.00700
C921        C  0.80511683  0.66667640  0.60778912    -0.01800
C922        C  0.81810268  0.69187966  0.63600087     0.07900
C923        C  0.85415927  0.70497247  0.63577097    -0.01900
C924        C  0.87461804  0.70027369  0.60331603    -0.01900
C925        C  0.85896262  0.68198880  0.57133632     0.08000
C926        C  0.82641452  0.66020308  0.57621374    -0.02100
Br927      Br  0.80981391  0.62290140  0.53982912    -0.00700
Br928      Br  0.75715842  0.64387711  0.61122650    -0.00700
Br929      Br  0.92245056  0.72286488  0.60180481    -0.00700
Br930      Br  0.87442951  0.73148804  0.67893835    -0.00700
C931        C  0.69558118  0.56546536  0.77102510    -0.01800
C932        C  0.65797622  0.56680200  0.77573174     0.07900
C933        C  0.64194406  0.60267673  0.77849108    -0.01900
C934        C  0.66348137  0.63711249  0.77765686    -0.01900
C935        C  0.70114224  0.63545721  0.77542967     0.08000
C936        C  0.71708169  0.59959488  0.77262921    -0.02100
Br937      Br  0.76860432  0.59688276  0.77363329    -0.00700
Br938      Br  0.71835185  0.51740461  0.76110598    -0.00700
Br939      Br  0.64139295  0.68642279  0.77765394    -0.00700
Br940      Br  0.59059291  0.60424769  0.78283483    -0.00700
C941        C  0.61878559  0.81237826  0.64649904    -0.01800
C942        C  0.63021901  0.80610183  0.68396073     0.07900
C943        C  0.60382927  0.80530524  0.71254853    -0.01900
C944        C  0.56715681  0.80479526  0.70309720    -0.01900
C945        C  0.55596025  0.80553914  0.66529646     0.08000
C946        C  0.58186126  0.81074709  0.63720148    -0.02100
Br947      Br  0.56662033  0.81178085  0.58565823    -0.00700
Br948      Br  0.65308066  0.82399642  0.60738093    -0.00700
Br949      Br  0.53177196  0.79883274  0.74237491    -0.00700
Br950      Br  0.61595908  0.80195567  0.76515678    -0.00700
C951        C  0.70557442  0.85374447  0.86796703    -0.01800
C952        C  0.69020420  0.81741893  0.85678592    -0.01700
C953        C  0.67074766  0.79505064  0.88319308    -0.01900
C954        C  0.67696444  0.80190310  0.92111617    -0.01900
C955        C  0.69179568  0.83804362  0.93306257     0.08000
C956        C  0.70462328  0.86486408  0.90609466    -0.02100
Br957      Br  0.72749898  0.91316527  0.92219757    -0.00700
Br958      Br  0.73240666  0.88549145  0.83282317    -0.00700
Br959      Br  0.67406448  0.75783038  0.95443932    -0.00700
Br960      Br  0.64087678  0.75073895  0.86779697    -0.00700
C961        C  0.81900770  0.87168033  0.69736407    -0.01800
C962        C  0.78125402  0.86788392  0.69738503     0.07900
C963        C  0.76083165  0.90079444  0.69482948    -0.01900
C964        C  0.77791842  0.93767670  0.69517353    -0.01900
C965        C  0.81589540  0.94181628  0.69565180     0.08000
C966        C  0.83631629  0.90865268  0.69535540    -0.02100
Br967      Br  0.88782280  0.91433743  0.69304020    -0.00700
Br968      Br  0.84678654  0.82660945  0.70265406    -0.00700
Br969      Br  0.74870731  0.98227051  0.69709422    -0.00700
Br970      Br  0.70912416  0.89506773  0.69203538    -0.00700
C971        C  0.87258705  0.65772970  0.77506636    -0.01800
C972        C  0.85394827  0.67827814  0.80260351     0.07900
C973        C  0.87090409  0.68532561  0.83774276    -0.01900
C974        C  0.90749438  0.67754355  0.84267637    -0.01900
C975        C  0.92782051  0.66417159  0.81238627     0.08000
C976        C  0.90942670  0.65202687  0.77933260    -0.02100
Br977      Br  0.93558314  0.63267683  0.73698527    -0.00700
Br978      Br  0.84838945  0.63771674  0.73061656    -0.00700
Br979      Br  0.92978773  0.68906316  0.89013104    -0.00700
Br980      Br  0.84602446  0.70904406  0.87872519    -0.00700
C981        C  0.46177217  0.86656592  0.01630486    -0.01800
C982        C  0.44811013  0.89904580  0.99855849     0.07900
C983        C  0.41535646  0.89480114  0.97884103    -0.01900
C984        C  0.39522363  0.85907846  0.97891484    -0.01900
C985        C  0.40858836  0.82642571  0.99754964     0.08000
C986        C  0.44342485  0.83022840  0.01342844    -0.02100
Br987      Br  0.46912122  0.78497495  0.02565166    -0.00700
Br988      Br  0.50649577  0.87111506  0.04382153    -0.00700
Br989      Br  0.35006212  0.85659517  0.95260904    -0.00700
Br990      Br  0.39735395  0.93875326  0.95284149    -0.00700
C991        C  0.36956655  0.08564781  0.01204764    -0.01800
C992        C  0.37611315  0.12202853  0.99531196     0.07900
C993        C  0.41112085  0.13297539  0.98352977    -0.01900
C994        C  0.43774723  0.10574632  0.98293783    -0.01900
C995        C  0.43099094  0.06915419  0.99899480     0.08000
C996        C  0.39754875  0.05995535  0.01550243    -0.02100
Br997      Br  0.39000113  0.01209566  0.04239054    -0.00700
Br998      Br  0.32276019  0.07046922  0.03002972    -0.00700
Br999      Br  0.48362961  0.11913557  0.96060773    -0.00700
Br1000     Br  0.42340463  0.18605455  0.97046947    -0.00700
C1001       C  0.62165908  0.86902869  0.98432134    -0.01800
C1002       C  0.65530496  0.88282963  0.99907143     0.07900
C1003       C  0.65859274  0.92160614  0.01170370    -0.01900
C1004       C  0.62824762  0.94389762  0.01448018    -0.01900
C1005       C  0.59597432  0.93060124  0.99755705     0.08000
C1006       C  0.59341504  0.89410176  0.98043211    -0.02100
Br1007     Br  0.55037357  0.87764342  0.95311272    -0.00700
Br1008     Br  0.61012136  0.81561453  0.97440617    -0.00700
Br1009     Br  0.63137127  0.99287136  0.04083860    -0.00700
Br1010     Br  0.70462757  0.94679619  0.02015464    -0.00700
C1011       C  0.60513513  0.15127654  0.01483640    -0.01800
C1012       C  0.63919316  0.14533369  0.99908998     0.07900
C1013       C  0.64461332  0.10952349  0.98096579    -0.01900
C1014       C  0.61631839  0.08125996  0.97826726    -0.01900
C1015       C  0.58405631  0.08613859  0.99783122     0.08000
C1016       C  0.57922334  0.12079071  0.01740162    -0.02100
Br1017     Br  0.53648593  0.12757318  0.04660391    -0.00700
Br1018     Br  0.59020099  0.20239676  0.02554979    -0.00700
Br1019     Br  0.62242014  0.03536423  0.94824934    -0.00700
Br1020     Br  0.69030519  0.09696891  0.96070229    -0.00700
C1021       C  0.98590785  0.39931118  0.92664340    -0.01800
C1022       C  0.00675988  0.43437971  0.92546015     0.07900
C1023       C  0.02070649  0.44711987  0.89079604    -0.01900
C1024       C  0.01178618  0.42646622  0.85793821    -0.01900
C1025       C  0.99537528  0.38909351  0.85946754     0.08000
C1026       C  0.98096977  0.37622612  0.89405366    -0.02100
Br1027     Br  0.95231134  0.32893027  0.89761369    -0.00700
Br1028     Br  0.96490197  0.38210408  0.97324766    -0.00700
Br1029     Br  0.01446898  0.45312756  0.81095099    -0.00700
Br1030     Br  0.05106327  0.49363887  0.88691656    -0.00700
C1031       C  0.02901354  0.45799741  0.13046001    -0.01800
C1032       C  0.02762347  0.44152216  0.09439981     0.07900
C1033       C  0.03155081  0.40135145  0.09069695    -0.01900
C1034       C  0.03245564  0.37766484  0.12286126    -0.01900
C1035       C  0.02610861  0.39355334  0.15860030     0.08000
C1036       C  0.02673593  0.43432266  0.16232934    -0.02100
Br1037     Br  0.02833731  0.45818259  0.21130100    -0.00700
Br1038     Br  0.03867330  0.51269503  0.13625079    -0.00700
Br1039     Br  0.04708792  0.32538199  0.11810933    -0.00700
Br1040     Br  0.03773546  0.37934020  0.04176051    -0.00700
C1041       C  0.98136945  0.57416325  0.88781870    -0.01800
C1042       C  0.99580600  0.58781933  0.92219850     0.07900
C1043       C  0.00729112  0.62684520  0.92533198    -0.01900
C1044       C  0.00847251  0.65102302  0.89381679    -0.01900
C1045       C  0.99648361  0.63703373  0.85852361     0.08000
C1046       C  0.98222139  0.59836220  0.85599810    -0.02100
Br1047     Br  0.96668743  0.57673955  0.80867201    -0.00700
Br1048     Br  0.95903097  0.52289146  0.88462033    -0.00700
Br1049     Br  0.02292590  0.70452730  0.90069745    -0.00700
Br1050     Br  0.01613053  0.64857158  0.97415381    -0.00700
C1051       C  0.99302146  0.59580921  0.11904225    -0.01800
C1052       C  0.01495113  0.59977698  0.08686801     0.07900
C1053       C  0.03915182  0.63244392  0.08494630    -0.01900
C1054       C  0.03829281  0.66207641  0.11221549    -0.01900
C1055       C  0.01930731  0.65635155  0.14599044     0.08000
C1056       C  0.99807261  0.62161331  0.14959539    -0.02100
Br1057     Br  0.97996235  0.60524173  0.19735930    -0.00700
Br1058     Br  0.95684388  0.55413771  0.12331752    -0.00700
Br1059     Br  0.05961243  0.71186389  0.10013916    -0.00700
Br1060     Br  0.07451541  0.63771218  0.04585784    -0.00700
C1061       C  0.44622738  0.47876937  0.11257079    -0.01800
C1062       C  0.44418319  0.49938775  0.07872028     0.07900
C1063       C  0.41081198  0.51291468  0.06740940    -0.01900
C1064       C  0.37996473  0.50441645  0.08884762    -0.01900
C1065       C  0.38255910  0.48873108  0.12513897     0.08000
C1066       C  0.41607976  0.47487916  0.13644968    -0.02100
Br1067     Br  0.42153097  0.44913326  0.18345183    -0.00700
Br1068     Br  0.49040358  0.45541906  0.12613727    -0.00700
Br1069     Br  0.33401957  0.50584308  0.06461865    -0.00700
Br1070     Br  0.40633622  0.54113062  0.02126264    -0.00700
C1071       C  0.63858253  0.50160276  0.06590327    -0.01800
C1072       C  0.60382076  0.51197730  0.07610200     0.07900
C1073       C  0.59805298  0.52536974  0.11288489    -0.01900
C1074       C  0.62601375  0.52570649  0.13983110    -0.01900
C1075       C  0.66057699  0.51447516  0.12995699     0.08000
C1076       C  0.66705730  0.50432317  0.09219751    -0.02100
Br1077     Br  0.71485721  0.49219798  0.07659743    -0.00700
Br1078     Br  0.64702553  0.48241407  0.01607971    -0.00700
Br1079     Br  0.61660570  0.54040558  0.19050374    -0.00700
Br1080     Br  0.55130349  0.54196965  0.12673892    -0.00700
C1081       C  0.45483975  0.51356367  0.88592373    -0.01800
C1082       C  0.44511119  0.49719341  0.92051875     0.07900
C1083       C  0.41151270  0.47730066  0.92374939    -0.01900
C1084       C  0.38699564  0.47614435  0.89334358    -0.01900
C1085       C  0.39753057  0.48986757  0.85749763     0.08000
C1086       C  0.43317055  0.50660078  0.85400848    -0.02100
Br1087     Br  0.45505305  0.51958714  0.80655001    -0.00700
Br1088     Br  0.49873474  0.54521902  0.88164095    -0.00700
Br1089     Br  0.33890165  0.45657235  0.90211623    -0.00700
Br1090     Br  0.39898869  0.45147516  0.96988101    -0.00700
C1091       C  0.57072288  0.48264540  0.87891032    -0.01800
C1092       C  0.58521286  0.50469202  0.90917695     0.07900
C1093       C  0.61586558  0.52912960  0.90306158    -0.01900
C1094       C  0.63283532  0.53014020  0.86760966    -0.01900
C1095       C  0.61871329  0.50692257  0.83744208     0.08000
C1096       C  0.58546700  0.48663900  0.84298653    -0.02100
Br1097     Br  0.55608379  0.47071147  0.80067361    -0.00700
Br1098     Br  0.52970370  0.44723235  0.88542740    -0.00700
Br1099     Br  0.67454423  0.56444657  0.86198395    -0.00700
Br1100     Br  0.63597870  0.55948651  0.94416509    -0.00700
C1101       C  0.06293206  0.61643611  0.46844315    -0.01800
C1102       C  0.07591210  0.58442278  0.48775899     0.07900
C1103       C  0.10628542  0.59005487  0.51113812    -0.01900
C1104       C  0.12427355  0.62689438  0.51409605    -0.01900
C1105       C  0.11069323  0.65915040  0.49502045     0.08000
C1106       C  0.07816023  0.65363773  0.47501044    -0.02100
Br1107     Br  0.04975443  0.69730190  0.46371156    -0.00700
Br1108     Br  0.02213890  0.61106629  0.43495809    -0.00700
Br1109     Br  0.16543805  0.63171728  0.54671347    -0.00700
Br1110     Br  0.12367378  0.54683376  0.53871151    -0.00700
C1111       C  0.05421726  0.37178343  0.50104054    -0.01800
C1112       C  0.06666499  0.40888331  0.49023310     0.07900
C1113       C  0.10256335  0.41509587  0.47918161    -0.01900
C1114       C  0.12717750  0.38566161  0.48365436    -0.01900
C1115       C  0.11535999  0.34904783  0.49751758     0.08000
C1116       C  0.07804786  0.34150997  0.50228566    -0.02100
Br1117     Br  0.05854298  0.28914137  0.50364994    -0.00700
Br1118     Br  0.00421265  0.36215098  0.51278584    -0.00700
Br1119     Br  0.17607748  0.39606077  0.46880097    -0.00700
Br1120     Br  0.11770119  0.46409102  0.45762218    -0.00700
C1121       C  0.89577735  0.40524698  0.47491205    -0.01800
C1122       C  0.90729167  0.43739282  0.49696204     0.07900
C1123       C  0.88170506  0.45737346  0.51758107    -0.01900
C1124       C  0.84514840  0.44652989  0.51470907    -0.01900
C1125       C  0.83352638  0.41233860  0.49564740     0.08000
C1126       C  0.85927981  0.39212257  0.47471133    -0.02100
Br1127     Br  0.84632227  0.34747056  0.44417704    -0.00700
Br1128     Br  0.93037090  0.37855398  0.44551705    -0.00700
Br1129     Br  0.81087332  0.48283190  0.53150468    -0.00700
Br1130     Br  0.89560387  0.50177118  0.54835710    -0.00700
C1131       C  0.95013466  0.62295599  0.50930203    -0.01800
C1132       C  0.93736623  0.58772480  0.49342040     0.07900
C1133       C  0.90344829  0.58514269  0.47598889    -0.01900
C1134       C  0.88125266  0.61694692  0.47691828    -0.01900
C1135       C  0.89332425  0.65170008  0.49496986     0.08000
C1136       C  0.92921137  0.65541102  0.50738056    -0.02100
Br1137     Br  0.95185547  0.70590406  0.51538329    -0.00700
Br1138     Br  0.99637873  0.62741696  0.53349339    -0.00700
Br1139     Br  0.83615246  0.61216617  0.45085632    -0.00700
Br1140     Br  0.88667273  0.53740502  0.45208453    -0.00700
C1141       C  0.47206261  0.14394472  0.61128805    -0.01800
C1142       C  0.48953626  0.13738540  0.64575500     0.07900
C1143       C  0.50812264  0.10299439  0.64900223    -0.01900
C1144       C  0.51531744  0.08040982  0.61745414    -0.01900
C1145       C  0.49428678  0.08354823  0.58477185     0.08000
C1146       C  0.47122960  0.11506522  0.58283215    -0.02100
Br1147     Br  0.43831131  0.11974239  0.54182455    -0.00700
Br1148     Br  0.45111448  0.19245031  0.60095077    -0.00700
Br1149     Br  0.55564365  0.04758325  0.62033713    -0.00700
Br1150     Br  0.51605471  0.08083691  0.69707694    -0.00700
C1151       C  0.49901917  0.10623378  0.41528479    -0.01800
C1152       C  0.51305434  0.06913401  0.41807046     0.07900
C1153       C  0.52878668  0.05325537  0.38604437    -0.01900
C1154       C  0.52726869  0.07248389  0.35137505    -0.01900
C1155       C  0.51572138  0.11093404  0.34897651     0.08000
C1156       C  0.50045454  0.12713427  0.38129454    -0.02100
Br1157     Br  0.47852720  0.17634547  0.37929656    -0.00700
Br1158     Br  0.48006040  0.12993259  0.45894409    -0.00700
Br1159     Br  0.53267682  0.04225814  0.30664069    -0.00700
Br1160     Br  0.55242772  0.00484342  0.38916931    -0.00700
C1161       C  0.51434156  0.87359060  0.44289695    -0.01800
C1162       C  0.50043079  0.90904600  0.43216206     0.07900
C1163       C  0.48779346  0.91313159  0.39523120    -0.01900
C1164       C  0.49242452  0.88355694  0.36837974    -0.01900
C1165       C  0.50705769  0.84802920  0.37894629     0.08000
C1166       C  0.51461341  0.84254610  0.41728677    -0.02100
Br1167     Br  0.51770157  0.79128682  0.43675838    -0.00700
Br1168     Br  0.53191700  0.86651027  0.49317800    -0.00700
Br1169     Br  0.47781410  0.89308243  0.31791040    -0.00700
Br1170     Br  0.46460705  0.95973965  0.38105412    -0.00700
C1171       C  0.47009964  0.84399209  0.59529011    -0.01800
C1172       C  0.48554310  0.84641347  0.63162055     0.07900
C1173       C  0.49933969  0.88306879  0.64412097    -0.01900
C1174       C  0.49573763  0.91629610  0.62182388    -0.01900
C1175       C  0.48118713  0.91358889  0.58546798     0.08000
C1176       C  0.46659263  0.87741419  0.57314692    -0.02100
Br1177     Br  0.44203216  0.87326728  0.52553492    -0.00700
Br1178     Br  0.45993375  0.79431049  0.57242630    -0.00700
Br1179     Br  0.50731903  0.96640571  0.64274723    -0.00700
Br1180     Br  0.52662113  0.88882107  0.68971017    -0.00700
loop_ 
_geom_bond_atom_site_label_1 
_geom_bond_atom_site_label_2 
_geom_bond_distance 
_geom_bond_site_symmetry_2 
_ccdc_geom_bond_type 
O1           Ni9   1.939   1_545  S
O1           C11   1.285       .  A
O2           Ni9   1.939       .  S
O2           C12   1.286       .  A
O3           Ni9   1.921       .  S
O3           C13   1.281       .  A
O4           Ni9   1.927   1_545  S
O4           C14   1.283       .  A
O5          Ni10   1.939   1_545  S
O5           C14   1.285       .  A
O6          Ni10   1.931       .  S
O6           C13   1.284       .  A
O7          Ni10   1.940       .  S
O7           C12   1.284       .  A
O8          Ni10   1.939   1_545  S
O8           C11   1.285       .  A
Ni9         Ni10   2.381       .  S
C11        C1152   1.504       .  S
C12        C1175   1.503       .  S
C13        C1162   1.489       .  S
C14        C1145   1.508       .  S
O15         Ni23   1.923       .  S
O15          C25   1.282       .  A
O16         Ni23   1.924   1_455  S
O16          C26   1.282       .  A
O17         Ni23   1.919   1_455  S
O17          C27   1.280       .  A
O18         Ni23   1.910       .  S
O18          C28   1.279       .  A
O19         Ni24   1.911   1_655  S
O19          C28   1.279       .  A
O20         Ni24   1.917       .  S
O20          C27   1.280       .  A
O21         Ni24   1.920       .  S
O21          C26   1.282       .  A
O22         Ni24   1.919   1_655  S
O22          C25   1.281       .  A
Ni23        Ni24   2.389   1_655  S
C25        C1122   1.487       .  S
C26        C1102   1.489       .  S
C27        C1112   1.474       .  S
C28        C1132   1.468       .  S
O29         Ni37   1.938       .  S
O29          C39   1.285       .  A
O30         Ni37   1.933   1_556  S
O30          C40   1.284       .  A
O31         Ni37   1.920   1_556  S
O31          C41   1.281       .  A
O32         Ni37   1.919       .  S
O32          C42   1.281       .  A
O33         Ni38   1.932   1_554  S
O33          C42   1.284       .  A
O34         Ni38   1.935       .  S
O34          C41   1.285       .  A
O35         Ni38   1.923       .  S
O35          C40   1.282       .  A
O36         Ni38   1.932   1_554  S
O36          C39   1.283       .  A
Ni37        Ni38   2.385   1_554  S
C39        C1072   1.496       .  S
C40        C1082   1.490       .  S
C41        C1092   1.493       .  S
C42        C1062   1.490       .  S
O43         Ni51   1.920   1_556  S
O43          C53   1.282   1_655  A
O44         Ni51   1.929       .  S
O44          C54   1.283   1_655  A
O45         Ni51   1.932   1_556  S
O45          C55   1.282   1_655  A
O46         Ni51   1.936       .  S
O46          C56   1.285   1_655  A
O47         Ni52   1.933       .  S
O47          C56   1.282       .  A
O48         Ni52   1.933   1_556  S
O48          C55   1.285       .  A
O49         Ni52   1.929       .  S
O49          C54   1.283       .  A
O50         Ni52   1.924   1_556  S
O50          C53   1.282       .  A
Ni51        Ni52   2.383   1_655  S
C53        C1022   1.488       .  S
C54        C1052   1.506       .  S
C55        C1042   1.492   1_455  S
C56        C1032   1.493       .  S
O57         Ni65   1.917   1_545  S
O57          C67   1.281       .  A
O58         Ni65   1.925       .  S
O58          C68   1.283       .  A
O59         Ni65   1.908   1_545  S
O59          C69   1.280       .  A
O60         Ni65   1.903       .  S
O60          C70   1.279       .  A
O61         Ni66   1.903       .  S
O61          C70   1.278   1_554  A
O62         Ni66   1.910   1_545  S
O62          C69   1.279   1_554  A
O63         Ni66   1.926       .  S
O63          C68   1.283   1_554  A
O64         Ni66   1.919   1_545  S
O64          C67   1.281   1_554  A
Ni65        Ni66   2.392   1_556  S
C67        C1015   1.478       .  S
C68         C982   1.490       .  S
C69         C995   1.466       .  S
C70        C1005   1.460       .  S
O71         Ni77   1.909       .  S
O71          C92   1.270       .  A
O72         Ni95   1.898       .  S
O72          C81   1.262       .  A
O73         Ni77   1.906       .  S
O73         Ni95   1.895       .  S
O73         Ni89   1.917       .  S
O73          H96   0.964       .  S
C74          O91   1.277       .  A
C74          O83   1.277       .  A
C74         C942   1.508       .  S
O75         Ni94   1.933       .  S
O75          C81   1.272       .  A
O76         Ni94   1.910       .  S
O76          C78   1.268       .  A
Ni77         O80   1.941       .  S
Ni77         O82   1.891       .  S
C78          O88   1.271       .  A
C78         C962   1.469       .  S
O79         Ni95   1.905       .  S
O79          C85   1.272       .  A
O80          C85   1.276       .  A
C81         C922   1.466       .  S
O82          C84   1.261       .  A
O83         Ni94   1.930       .  S
C84          O90   1.271       .  A
C84         C935   1.468       .  S
C85         C972   1.499       .  S
H86          O87   0.966       .  S
O87         Ni95   1.909       .  S
O87         Ni89   1.905       .  S
O87         Ni94   1.904       .  S
O88         Ni89   1.921       .  S
Ni89         O93   1.920       .  S
Ni89         O91   1.929       .  S
O90         Ni95   1.930       .  S
C92          O93   1.271       .  A
C92         C952   1.481       .  S
O97        Ni103   1.933       .  S
O97         C118   1.272       .  A
O98        Ni121   1.915       .  S
O98         C107   1.267       .  A
O99        Ni103   1.911       .  S
O99        Ni121   1.903       .  S
O99        Ni115   1.904       .  S
O99         H122   0.964       .  S
C100        O117   1.272       .  A
C100        O109   1.274       .  A
C100        C902   1.474       .  S
O101       Ni120   1.925       .  S
O101        C107   1.272       .  A
O102       Ni120   1.912       .  S
O102        C104   1.268       .  A
Ni103       O106   1.940       .  S
Ni103       O108   1.904       .  S
C104        O114   1.274       .  A
C104        C872   1.500       .  S
O105       Ni121   1.894       .  S
O105        C111   1.271       .  A
O106        C111   1.278       .  A
C107        C915   1.489       .  S
O108        C110   1.264       .  A
O109       Ni120   1.931       .  S
C110        O116   1.276       .  A
C110        C882   1.511       .  S
C111        C862   1.468       .  S
H112        O113   0.966       .  S
O113       Ni121   1.917       .  S
O113       Ni115   1.917       .  S
O113       Ni120   1.919       .  S
O114       Ni115   1.939       .  S
Ni115       O119   1.907       .  S
Ni115       O117   1.911       .  S
O116       Ni121   1.944       .  S
C118        O119   1.266       .  A
C118        C892   1.483       .  S
O123       Ni129   1.920       .  S
O123        C144   1.272       .  A
O124       Ni147   1.915       .  S
O124        C133   1.267       .  A
O125       Ni129   1.899       .  S
O125       Ni147   1.888       .  S
O125       Ni141   1.920       .  S
O125        H148   0.967       .  S
C126        O143   1.281       .  A
C126        O135   1.280       .  A
C126        C852   1.478       .  S
O127       Ni146   1.912       .  S
O127        C133   1.264       .  A
O128       Ni146   1.892       .  S
O128        C130   1.261       .  A
Ni129       O132   1.939       .  S
Ni129       O134   1.904       .  S
C130        O140   1.270       .  A
C130        C815   1.472       .  S
O131       Ni147   1.900       .  S
O131        C137   1.275       .  A
O132        C137   1.279       .  A
C133        C845   1.460       .  S
O134        C136   1.266       .  A
O135       Ni146   1.925       .  S
C136        O142   1.276       .  A
C136        C825   1.484       .  S
C137        C835   1.494       .  S
H138        O139   0.960       .  S
O139       Ni147   1.912       .  S
O139       Ni141   1.887       .  S
O139       Ni146   1.898       .  S
O140       Ni141   1.929       .  S
Ni141       O145   1.897       .  S
Ni141       O143   1.928       .  S
O142       Ni147   1.939       .  S
C144        O145   1.266       .  A
C144        C802   1.480       .  S
O149       Ni155   1.942       .  S
O149        C170   1.272       .  A
O150       Ni173   1.897       .  S
O150        C159   1.267       .  A
O151       Ni155   1.915       .  S
O151       Ni173   1.918       .  S
O151       Ni167   1.908       .  S
O151        H174   0.967       .  S
C152        O169   1.270       .  A
C152        O161   1.278       .  A
C152        C792   1.480       .  S
O153       Ni172   1.950       .  S
O153        C159   1.276       .  A
O154       Ni172   1.921       .  S
O154        C156   1.272       .  A
Ni155       O158   1.926       .  S
Ni155       O160   1.901       .  S
C156        O166   1.274       .  A
C156        C742   1.498       .  S
O157       Ni173   1.904       .  S
O157        C163   1.267       .  A
O158        C163   1.274       .  A
C159        C775   1.480       .  S
O160        C162   1.270       .  A
O161       Ni172   1.927       .  S
C162        O168   1.280       .  A
C162        C765   1.495       .  S
C163        C782   1.466       .  S
H164        O165   0.964       .  S
O165       Ni173   1.901       .  S
O165       Ni167   1.907       .  S
O165       Ni172   1.919       .  S
O166       Ni167   1.938       .  S
Ni167       O171   1.901       .  S
Ni167       O169   1.905       .  S
O168       Ni173   1.963       .  S
C170        O171   1.266       .  A
C170        C752   1.478       .  S
O175       Ni181   1.910       .  S
O175        C196   1.261       .  A
O176       Ni199   1.907       .  S
O176        C185   1.267       .  A
O177       Ni181   1.911       .  S
O177       Ni199   1.885       .  S
O177       Ni193   1.896       .  S
O177        H200   0.980       .  S
C178        O195   1.263       .  A
C178        O187   1.276       .  A
C178        C732   1.500       .  S
O179       Ni198   1.917       .  S
O179        C185   1.273       .  A
O180       Ni198   1.892       .  S
O180        C182   1.265       .  A
Ni181       O184   1.920       .  S
Ni181       O186   1.896       .  S
C182        O192   1.291       .  A
C182        C695   1.502       .  S
O183       Ni199   1.946       .  S
O183        C189   1.287       .  A
O184        C189   1.277       .  A
C185        C702   1.466       .  S
O186        C188   1.260       .  A
O187       Ni198   1.965       .  S
C188        O194   1.269       .  A
C188        C722   1.485       .  S
C189        C712   1.503       .  S
H190        O191   0.949       .  S
O191       Ni199   1.955       .  S
O191       Ni193   1.908       .  S
O191       Ni198   1.910       .  S
O192       Ni193   1.987       .  S
Ni193       O197   1.915       .  S
Ni193       O195   1.890       .  S
O194       Ni199   1.934       .  S
C196        O197   1.266       .  A
C196        C682   1.459       .  S
O201       Ni207   1.940       .  S
O201        C222   1.274       .  A
O202       Ni225   1.913       .  S
O202        C211   1.264       .  A
O203       Ni207   1.925       .  S
O203       Ni225   1.916       .  S
O203       Ni219   1.908       .  S
O203        H226   0.971       .  S
C204        O221   1.266       .  A
C204        O213   1.270       .  A
C204        C622   1.450       .  S
O205       Ni224   1.918       .  S
O205        C211   1.267       .  A
O206       Ni224   1.904       .  S
O206        C208   1.266       .  A
Ni207       O210   1.942       .  S
Ni207       O212   1.909       .  S
C208        O218   1.281       .  A
C208        C655   1.497       .  S
O209       Ni225   1.880       .  S
O209        C215   1.262       .  A
O210        C215   1.276       .  A
C211        C665   1.475       .  S
O212        C214   1.268       .  A
O213       Ni224   1.919       .  S
C214        O220   1.280       .  A
C214        C632   1.484       .  S
C215        C642   1.476       .  S
H216        O217   0.968       .  S
O217       Ni225   1.903       .  S
O217       Ni219   1.919       .  S
O217       Ni224   1.930       .  S
O218       Ni219   1.956       .  S
Ni219       O223   1.926       .  S
Ni219       O221   1.881       .  S
O220       Ni225   1.954       .  S
C222        O223   1.271       .  A
C222        C672   1.496       .  S
O227       Ni233   1.912       .  S
O227        C248   1.270       .  A
O228       Ni251   1.922       .  S
O228        C237   1.267       .  A
O229       Ni233   1.902       .  S
O229       Ni251   1.909       .  S
O229       Ni245   1.921       .  S
O229        H252   0.961       .  S
C230        O247   1.279       .  A
C230        O239   1.277       .  A
C230        C605   1.481       .  S
O231       Ni250   1.903       .  S
O231        C237   1.264       .  A
O232       Ni250   1.889       .  S
O232        C234   1.262       .  A
Ni233       O236   1.909       .  S
Ni233       O238   1.903       .  S
C234        O244   1.273       .  A
C234        C592   1.470       .  S
O235       Ni251   1.931       .  S
O235        C241   1.280       .  A
O236        C241   1.273       .  A
C237        C565   1.475       .  S
O238        C240   1.265       .  A
O239       Ni250   1.929       .  S
C240        O246   1.270       .  A
C240        C572   1.505       .  S
C241        C612   1.482       .  S
H242        O243   0.964       .  S
O243       Ni251   1.922       .  S
O243       Ni245   1.890       .  S
O243       Ni250   1.901       .  S
O244       Ni245   1.934       .  S
Ni245       O249   1.910       .  S
Ni245       O247   1.921       .  S
O246       Ni251   1.928       .  S
C248        O249   1.267       .  A
C248        C585   1.467       .  S
O253       Ni261   1.935       .  S
O253        C263   1.285   1_565  A
O254       Ni261   1.944   1_455  S
O254        C264   1.285       .  A
O255       Ni261   1.948       .  S
O255        C265   1.287   1_565  A
O256       Ni261   1.947   1_455  S
O256        C266   1.286   1_565  A
O257       Ni262   1.937   1_455  S
O257        C266   1.284       .  A
O258       Ni262   1.928       .  S
O258        C265   1.282       .  A
O259       Ni262   1.931   1_455  S
O259        C264   1.283   1_545  A
O260       Ni262   1.922       .  S
O260        C263   1.281       .  A
Ni261      Ni262   2.379   1_565  S
C263        C525   1.495       .  S
C264        C555   1.499       .  S
C265        C542   1.518       .  S
C266        C532   1.506       .  S
N267        C271   1.378       .  A
N267        C268   1.378   1_545  A
N267        C535   1.458       .  S
C268        C675   1.505       .  S
C268        C269   1.382       .  A
C269        C270   1.362   1_565  A
C269        H272   1.083       .  S
C270        C271   1.379       .  A
C270        H273   1.083       .  S
C271        C512   1.503       .  S
O274       Ni280   1.927       .  S
O274        C295   1.269       .  A
O275       Ni298   1.906       .  S
O275        C284   1.269       .  A
O276       Ni280   1.921       .  S
O276       Ni298   1.924       .  S
O276       Ni292   1.917       .  S
O276        H299   0.969       .  S
C277        O294   1.272       .  A
C277        O286   1.276       .  A
C277        C462   1.494       .  S
O278       Ni297   1.947       .  S
O278        C284   1.274       .  A
O279       Ni297   1.904       .  S
O279        C281   1.270       .  A
Ni280       O283   1.910       .  S
Ni280       O285   1.905       .  S
C281        O291   1.277       .  A
C281        C515   1.489       .  S
O282       Ni298   1.916       .  S
O282        C288   1.269       .  A
O283        C288   1.271       .  A
C284        C482   1.495       .  S
O285        C287   1.270       .  A
O286       Ni297   1.928       .  S
C287        O293   1.279       .  A
C287        C472   1.492       .  S
C288        C492   1.474       .  S
H289        O290   0.965       .  S
O290       Ni298   1.908       .  S
O290       Ni292   1.916       .  S
O290       Ni297   1.914       .  S
O291       Ni292   1.951       .  S
Ni292       O296   1.911       .  S
Ni292       O294   1.918       .  S
O293       Ni298   1.956       .  S
C295        O296   1.268       .  A
C295        C502   1.484       .  S
N300        C304   1.369       .  A
N300        C301   1.370   1_455  A
N300       C1035   1.454       .  S
C301        C615   1.494       .  S
C301        C302   1.380       .  A
C302        C303   1.367   1_655  A
C302        H305   1.082       .  S
C303        C304   1.383       .  A
C303        H306   1.083       .  S
C304        C505   1.495       .  S
N307        C311   1.359   1_556  A
N307        C308   1.360       .  A
N307        C992   1.438       .  S
C308        C795   1.487       .  S
C308        C309   1.384       .  A
C309        C310   1.370       .  A
C309        H312   1.082       .  S
C310        C311   1.381   1_556  A
C310        H313   1.082   1_556  S
C311        C495   1.480       .  S
N314        C318   1.374       .  A
N314        C315   1.373       .  A
N314       C1155   1.464       .  S
C315        C602   1.499       .  S
C315        C316   1.380       .  A
C316        C317   1.365       .  A
C316        H319   1.083       .  S
C317        C318   1.383       .  A
C317        H320   1.083       .  S
C318        C485   1.501       .  S
N321        C325   1.373       .  A
N321        C322   1.366   1_545  A
N321        C522   1.464       .  S
C322        C725   1.483       .  S
C322        C323   1.380   1_565  A
C323        C324   1.363       .  A
C323        H326   1.083   1_545  S
C324        C325   1.385       .  A
C324        H327   1.082       .  S
C325        C595   1.503       .  S
N328        C332   1.369   1_556  A
N328        C329   1.364       .  A
N328       C1012   1.454       .  S
C329        C842   1.481       .  S
C329        C330   1.381       .  A
C330        C331   1.365   1_556  A
C330        H333   1.083       .  S
C331        C332   1.382       .  A
C331        H334   1.083       .  S
C332        C582   1.489       .  S
N335        C339   1.371       .  A
N335        C336   1.375       .  A
N335       C1075   1.456       .  S
C336        C692   1.497       .  S
C336        C337   1.379       .  A
C337        C338   1.363       .  A
C337        H340   1.083       .  S
C338        C339   1.384       .  A
C338        H341   1.083       .  S
C339        C575   1.498       .  S
N342        C346   1.368       .  A
N342        C343   1.363       .  A
N342       C1125   1.458       .  S
C343        C562   1.474       .  S
C343        C344   1.384       .  A
C344        C345   1.365       .  A
C344        H347   1.083       .  S
C345        C346   1.382       .  A
C345        H348   1.082       .  S
C346        C805   1.495       .  S
N349        C353   1.372       .  A
N349        C350   1.375       .  A
N349       C1065   1.460       .  S
C350        C662   1.498       .  S
C350        C351   1.381       .  A
C351        C352   1.360       .  A
C351        H354   1.083       .  S
C352        C353   1.381       .  A
C352        H355   1.083       .  S
C353        C475   1.489       .  S
N356        C360   1.380       .  A
N356        C357   1.375   1_455  A
N356       C1055   1.464       .  S
C357        C735   1.492       .  S
C357        C358   1.379   1_655  A
C358        C359   1.359       .  A
C358        H361   1.083   1_455  S
C359        C360   1.382       .  A
C359        H362   1.083       .  S
C360        C652   1.501       .  S
N363        C367   1.371       .  A
N363        C364   1.369   1_554  A
N363        C985   1.464   1_554  S
C364        C905   1.482       .  S
C364        C365   1.382       .  A
C365        C366   1.363   1_556  A
C365        H368   1.083       .  S
C366        C367   1.382       .  A
C366        H369   1.082       .  S
C367        C645   1.498       .  S
N370        C374   1.371       .  A
N370        C371   1.378       .  A
N370       C1165   1.460       .  S
C371        C715   1.502       .  S
C371        C372   1.381       .  A
C372        C373   1.362       .  A
C372        H375   1.083       .  S
C373        C374   1.380       .  A
C373        H376   1.083       .  S
C374        C635   1.486       .  S
N377        C381   1.362       .  A
N377        C378   1.364       .  A
N377       C1105   1.458       .  S
C378        C625   1.485       .  S
C378        C379   1.381       .  A
C379        C380   1.367       .  A
C379        H382   1.082       .  S
C380        C381   1.385       .  A
C380        H383   1.083       .  S
C381        C865   1.476       .  S
N384        C388   1.368       .  A
N384        C385   1.364   1_554  A
N384       C1002   1.453   1_554  S
C385        C955   1.473       .  S
C385        C386   1.378       .  A
C386        C387   1.362   1_556  A
C386        H389   1.082       .  S
C387        C388   1.383       .  A
C387        H390   1.083       .  S
C388        C705   1.488       .  S
N391        C395   1.370       .  A
N391        C392   1.365       .  A
N391       C1115   1.452       .  S
C392        C465   1.486       .  S
C392        C393   1.382       .  A
C393        C394   1.365       .  A
C393        H396   1.083       .  S
C394        C395   1.382       .  A
C394        H397   1.082       .  S
C395        C785   1.498       .  S
N398        C402   1.372   1_655  A
N398        C399   1.367       .  A
N398       C1025   1.454       .  S
C399        C855   1.482       .  S
C399        C400   1.381       .  A
C400        C401   1.365   1_655  A
C400        H403   1.083       .  S
C401        C402   1.381       .  A
C401        H404   1.082       .  S
C402        C772   1.499       .  S
N405        C409   1.382       .  A
N405        C406   1.378   1_545  A
N405        C552   1.466       .  S
C406        C912   1.492       .  S
C406        C407   1.378       .  A
C407        C408   1.354   1_565  A
C407        H410   1.083       .  S
C408        C409   1.382       .  A
C408        H411   1.083       .  S
C409        C762   1.500       .  S
N412        C416   1.372       .  A
N412        C413   1.372       .  A
N412       C1142   1.463       .  S
C413        C832   1.490       .  S
C413        C414   1.379       .  A
C414        C415   1.359       .  A
C414        H417   1.082       .  S
C415        C416   1.382       .  A
C415        H418   1.083       .  S
C416        C755   1.484       .  S
N419        C423   1.367       .  A
N419        C420   1.376       .  A
N419       C1085   1.470       .  S
C420        C895   1.517       .  S
C420        C421   1.387       .  A
C421        C422   1.363       .  A
C421        H424   1.083       .  S
C422        C423   1.378       .  A
C422        H425   1.082       .  S
C423        C745   1.496       .  S
N426        C430   1.378       .  A
N426        C427   1.371   1_545  A
N426        C545   1.471       .  S
C427        C965   1.479       .  S
C427        C428   1.379       .  A
C428        C429   1.357   1_565  A
C428        H431   1.083       .  S
C429        C430   1.382       .  A
C429        H432   1.082       .  S
C430        C822   1.502       .  S
N433        C437   1.380   1_655  A
N433        C434   1.374       .  A
N433       C1045   1.458       .  S
C434        C975   1.495       .  S
C434        C435   1.380       .  A
C435        C436   1.358   1_655  A
C435        H438   1.083       .  S
C436        C437   1.382       .  A
C436        H439   1.083       .  S
C437        C885   1.504       .  S
N440        C444   1.377       .  A
N440        C441   1.372       .  A
N440       C1172   1.463       .  S
C441        C945   1.488       .  S
C441        C442   1.381       .  A
C442        C443   1.361       .  A
C442        H445   1.083       .  S
C443        C444   1.382       .  A
C443        H446   1.082       .  S
C444        C875   1.503       .  S
N447        C451   1.370       .  A
N447        C448   1.366       .  A
N447       C1095   1.465       .  S
C448        C932   1.474       .  S
C448        C449   1.380       .  A
C449        C450   1.361       .  A
C449        H452   1.083       .  S
C450        C451   1.385       .  A
C450        H453   1.082       .  S
C451        C812   1.501       .  S
N454        C458   1.359       .  A
N454        C455   1.366       .  A
N454       C1135   1.444       .  S
C455        C925   1.492       .  S
C455        C456   1.383       .  A
C456        C457   1.368       .  A
C456        H459   1.083       .  S
C457        C458   1.380       .  A
C457        H460   1.082       .  S
C458        C685   1.474       .  S
C461        C462   1.420       .  A
C461        C466   1.415       .  A
C461       Br468   1.930       .  S
C462        C463   1.413       .  A
C463        C464   1.403       .  A
C463       Br470   1.936       .  S
C464        C465   1.414       .  A
C464       Br469   1.933       .  S
C465        C466   1.407       .  A
C466       Br467   1.926       .  S
C471        C472   1.408       .  A
C471        C476   1.411       .  A
C471       Br478   1.926       .  S
C472        C473   1.414       .  A
C473        C474   1.413       .  A
C473       Br480   1.929       .  S
C474        C475   1.406       .  A
C474       Br479   1.924       .  S
C475        C476   1.419       .  A
C476       Br477   1.934       .  S
C481        C482   1.410       .  A
C481        C486   1.410       .  A
C481       Br488   1.938       .  S
C482        C483   1.418       .  A
C483        C484   1.418       .  A
C483       Br490   1.929       .  S
C484        C485   1.410       .  A
C484       Br489   1.926       .  S
C485        C486   1.423       .  A
C486       Br487   1.933       .  S
C491        C492   1.410       .  A
C491        C496   1.412       .  A
C491       Br498   1.929       .  S
C492        C493   1.402       .  A
C493        C494   1.398       .  A
C493       Br500   1.930       .  S
C494        C495   1.412       .  A
C494       Br499   1.928       .  S
C495        C496   1.412       .  A
C496       Br497   1.923       .  S
C501        C502   1.407       .  A
C501        C506   1.408       .  A
C501       Br508   1.934       .  S
C502        C503   1.412       .  A
C503        C504   1.412       .  A
C503       Br510   1.933       .  S
C504        C505   1.411       .  A
C504       Br509   1.921       .  S
C505        C506   1.421       .  A
C506       Br507   1.931       .  S
C511        C512   1.417       .  A
C511        C516   1.416       .  A
C511       Br518   1.914       .  S
C512        C513   1.413       .  A
C513        C514   1.410       .  A
C513       Br520   1.913       .  S
C514        C515   1.411       .  A
C514       Br519   1.934       .  S
C515        C516   1.407       .  A
C516       Br517   1.927       .  S
C521        C522   1.420       .  A
C521        C526   1.409       .  A
C521       Br528   1.928       .  S
C522        C523   1.424   1_545  A
C523        C524   1.417       .  A
C523       Br530   1.931       .  S
C524        C525   1.411   1_565  A
C524       Br529   1.926       .  S
C525        C526   1.410       .  A
C526       Br527   1.936       .  S
C531        C532   1.412       .  A
C531        C536   1.413       .  A
C531       Br538   1.927       .  S
C532        C533   1.419   1_545  A
C533        C534   1.423       .  A
C533       Br540   1.927       .  S
C534        C535   1.411   1_565  A
C534       Br539   1.920       .  S
C535        C536   1.415       .  A
C536       Br537   1.933       .  S
C541        C542   1.417       .  A
C541        C546   1.405       .  A
C541       Br548   1.934       .  S
C542        C543   1.423   1_545  A
C543        C544   1.427       .  A
C543       Br550   1.928       .  S
C544        C545   1.425   1_565  A
C544       Br549   1.927       .  S
C545        C546   1.413       .  A
C546       Br547   1.918       .  S
C551        C552   1.417       .  A
C551        C556   1.417       .  A
C551       Br558   1.920       .  S
C552        C553   1.422   1_545  A
C553        C554   1.414       .  A
C553       Br560   1.912       .  S
C554        C555   1.404       .  A
C554       Br559   1.930       .  S
C555        C556   1.409   1_565  A
C556       Br557   1.919       .  S
C561        C562   1.413       .  A
C561        C566   1.392       .  A
C561       Br568   1.941       .  S
C562        C563   1.409       .  A
C563        C564   1.413       .  A
C563       Br570   1.924       .  S
C564        C565   1.411       .  A
C564       Br569   1.925       .  S
C565        C566   1.410       .  A
C566       Br567   1.927       .  S
C571        C572   1.422       .  A
C571        C576   1.411       .  A
C571       Br578   1.936       .  S
C572        C573   1.420       .  A
C573        C574   1.411       .  A
C573       Br580   1.933       .  S
C574        C575   1.409       .  A
C574       Br579   1.920       .  S
C575        C576   1.406       .  A
C576       Br577   1.916       .  S
C581        C582   1.420       .  A
C581        C586   1.401       .  A
C581       Br588   1.930       .  S
C582        C583   1.418       .  A
C583        C584   1.411       .  A
C583       Br590   1.916       .  S
C584        C585   1.401       .  A
C584       Br589   1.929       .  S
C585        C586   1.400       .  A
C586       Br587   1.932       .  S
C591        C592   1.402       .  A
C591        C596   1.405       .  A
C591       Br598   1.938       .  S
C592        C593   1.403       .  A
C593        C594   1.410       .  A
C593       Br600   1.929       .  S
C594        C595   1.422       .  A
C594       Br599   1.929       .  S
C595        C596   1.418       .  A
C596       Br597   1.906       .  S
C601        C602   1.417       .  A
C601        C606   1.410       .  A
C601       Br608   1.918       .  S
C602        C603   1.421       .  A
C603        C604   1.410       .  A
C603       Br610   1.924       .  S
C604        C605   1.405       .  A
C604       Br609   1.933       .  S
C605        C606   1.409       .  A
C606       Br607   1.935       .  S
C611        C612   1.407       .  A
C611        C616   1.413       .  A
C611       Br618   1.930       .  S
C612        C613   1.412       .  A
C613        C614   1.405       .  A
C613       Br620   1.941       .  S
C614        C615   1.412       .  A
C614       Br619   1.915       .  S
C615        C616   1.417       .  A
C616       Br617   1.922       .  S
C621        C622   1.401       .  A
C621        C626   1.402       .  A
C621       Br628   1.935       .  S
C622        C623   1.396       .  A
C623        C624   1.399       .  A
C623       Br630   1.938       .  S
C624        C625   1.419       .  A
C624       Br629   1.913       .  S
C625        C626   1.420       .  A
C626       Br627   1.929       .  S
C631        C632   1.410       .  A
C631        C636   1.417       .  A
C631       Br638   1.926       .  S
C632        C633   1.407       .  A
C633        C634   1.401       .  A
C633       Br640   1.924       .  S
C634        C635   1.413       .  A
C634       Br639   1.938       .  S
C635        C636   1.412       .  A
C636       Br637   1.922       .  S
C641        C642   1.410       .  A
C641        C646   1.407       .  A
C641       Br648   1.937       .  S
C642        C643   1.403       .  A
C643        C644   1.407       .  A
C643       Br650   1.936       .  S
C644        C645   1.419       .  A
C644       Br649   1.914       .  S
C645        C646   1.422       .  A
C646       Br647   1.935       .  S
C651        C652   1.423       .  A
C651        C656   1.408       .  A
C651       Br658   1.935       .  S
C652        C653   1.412       .  A
C653        C654   1.417       .  A
C653       Br660   1.923       .  S
C654        C655   1.420       .  A
C654       Br659   1.934       .  S
C655        C656   1.406       .  A
C656       Br657   1.930       .  S
C661        C662   1.422       .  A
C661        C666   1.406       .  A
C661       Br668   1.929       .  S
C662        C663   1.418       .  A
C663        C664   1.413       .  A
C663       Br670   1.916       .  S
C664        C665   1.403       .  A
C664       Br669   1.929       .  S
C665        C666   1.403       .  A
C666       Br667   1.935       .  S
C671        C672   1.412       .  A
C671        C676   1.421       .  A
C671       Br678   1.927       .  S
C672        C673   1.406       .  A
C673        C674   1.412       .  A
C673       Br680   1.932       .  S
C674        C675   1.419       .  A
C674       Br679   1.920       .  S
C675        C676   1.415       .  A
C676       Br677   1.919       .  S
C681        C682   1.403       .  A
C681        C686   1.400       .  A
C681       Br688   1.932       .  S
C682        C683   1.408       .  A
C683        C684   1.408       .  A
C683       Br690   1.929       .  S
C684        C685   1.409       .  A
C684       Br689   1.925       .  S
C685        C686   1.412       .  A
C686       Br687   1.935       .  S
C691        C692   1.408       .  A
C691        C696   1.414       .  A
C691       Br698   1.925       .  S
C692        C693   1.421       .  A
C693        C694   1.415       .  A
C693       Br700   1.926       .  S
C694        C695   1.408       .  A
C694       Br699   1.931       .  S
C695        C696   1.425       .  A
C696       Br697   1.938       .  S
C701        C702   1.399       .  A
C701        C706   1.402       .  A
C701       Br708   1.932       .  S
C702        C703   1.401       .  A
C703        C704   1.410       .  A
C703       Br710   1.927       .  S
C704        C705   1.417       .  A
C704       Br709   1.918       .  S
C705        C706   1.422       .  A
C706       Br707   1.935       .  S
C711        C712   1.420       .  A
C711        C716   1.411       .  A
C711       Br718   1.941       .  S
C712        C713   1.413       .  A
C713        C714   1.417       .  A
C713       Br720   1.929       .  S
C714        C715   1.415       .  A
C714       Br719   1.918       .  S
C715        C716   1.418       .  A
C716       Br717   1.931       .  S
C721        C722   1.408       .  A
C721        C726   1.407       .  A
C721       Br728   1.928       .  S
C722        C723   1.417       .  A
C723        C724   1.410       .  A
C723       Br730   1.930       .  S
C724        C725   1.405       .  A
C724       Br729   1.929       .  S
C725        C726   1.418       .  A
C726       Br727   1.934   1_565  S
C731        C732   1.417       .  A
C731        C736   1.419       .  A
C731       Br738   1.928       .  S
C732        C733   1.412       .  A
C733        C734   1.404       .  A
C733       Br740   1.932       .  S
C734        C735   1.417       .  A
C734       Br739   1.940       .  S
C735        C736   1.412       .  A
C736       Br737   1.925       .  S
C741        C742   1.413       .  A
C741        C746   1.410       .  A
C741       Br748   1.932       .  S
C742        C743   1.415       .  A
C743        C744   1.415       .  A
C743       Br750   1.925       .  S
C744        C745   1.412       .  A
C744       Br749   1.932       .  S
C745        C746   1.417       .  A
C746       Br747   1.933       .  S
C751        C752   1.411       .  A
C751        C756   1.415       .  A
C751       Br758   1.927       .  S
C752        C753   1.404       .  A
C753        C754   1.405       .  A
C753       Br760   1.932       .  S
C754        C755   1.419       .  A
C754       Br759   1.937       .  S
C755        C756   1.410       .  A
C756       Br757   1.926       .  S
C761        C762   1.426       .  A
C761        C766   1.413       .  A
C761       Br768   1.934       .  S
C762        C763   1.412       .  A
C763        C764   1.413       .  A
C763       Br770   1.919       .  S
C764        C765   1.412       .  A
C764       Br769   1.931       .  S
C765        C766   1.406       .  A
C766       Br767   1.930       .  S
C771        C772   1.418       .  A
C771        C776   1.413       .  A
C771       Br778   1.918       .  S
C772        C773   1.420       .  A
C773        C774   1.408       .  A
C773       Br780   1.928       .  S
C774        C775   1.405       .  A
C774       Br779   1.931       .  S
C775        C776   1.405       .  A
C776       Br777   1.931       .  S
C781        C782   1.396       .  A
C781        C786   1.408       .  A
C781       Br788   1.930       .  S
C782        C783   1.400       .  A
C783        C784   1.406       .  A
C783       Br790   1.930       .  S
C784        C785   1.421       .  A
C784       Br789   1.924       .  S
C785        C786   1.421       .  A
C786       Br787   1.911       .  S
C791        C792   1.412       .  A
C791        C796   1.406       .  A
C791       Br798   1.929       .  S
C792        C793   1.414       .  A
C793        C794   1.408       .  A
C793       Br800   1.928       .  S
C794        C795   1.406       .  A
C794       Br799   1.916       .  S
C795        C796   1.405       .  A
C796       Br797   1.915       .  S
C801        C802   1.413       .  A
C801        C806   1.409       .  A
C801       Br808   1.938       .  S
C802        C803   1.407       .  A
C803        C804   1.401       .  A
C803       Br810   1.940       .  S
C804        C805   1.415       .  A
C804       Br809   1.914       .  S
C805        C806   1.422       .  A
C806       Br807   1.936       .  S
C811        C812   1.419       .  A
C811        C816   1.406       .  A
C811       Br818   1.912       .  S
C812        C813   1.420       .  A
C813        C814   1.407       .  A
C813       Br820   1.932       .  S
C814        C815   1.405       .  A
C814       Br819   1.931       .  S
C815        C816   1.403       .  A
C816       Br817   1.934       .  S
C821        C822   1.425       .  A
C821        C826   1.407       .  A
C821       Br828   1.934       .  S
C822        C823   1.418       .  A
C823        C824   1.414       .  A
C823       Br830   1.920       .  S
C824        C825   1.410       .  A
C824       Br829   1.933       .  S
C825        C826   1.402       .  A
C826       Br827   1.929       .  S
C831        C832   1.417       .  A
C831        C836   1.400       .  A
C831       Br838   1.937       .  S
C832        C833   1.414       .  A
C833        C834   1.415       .  A
C833       Br840   1.926       .  S
C834        C835   1.417       .  A
C834       Br839   1.933       .  S
C835        C836   1.411       .  A
C836       Br837   1.937       .  S
C841        C842   1.418       .  A
C841        C846   1.402       .  A
C841       Br848   1.936       .  S
C842        C843   1.410       .  A
C843        C844   1.408       .  A
C843       Br850   1.923       .  S
C844        C845   1.406       .  A
C844       Br849   1.929       .  S
C845        C846   1.402       .  A
C846       Br847   1.934       .  S
C851        C852   1.412       .  A
C851        C856   1.413       .  A
C851       Br858   1.926       .  S
C852        C853   1.408       .  A
C853        C854   1.402       .  A
C853       Br860   1.932       .  S
C854        C855   1.414       .  A
C854       Br859   1.935       .  S
C855        C856   1.410       .  A
C856       Br857   1.925       .  S
C861        C862   1.405       .  A
C861        C866   1.397       .  A
C861       Br868   1.933       .  S
C862        C863   1.409       .  A
C863        C864   1.412       .  A
C863       Br870   1.925       .  S
C864        C865   1.409       .  A
C864       Br869   1.924       .  S
C865        C866   1.417       .  A
C866       Br867   1.936       .  S
C871        C872   1.416       .  A
C871        C876   1.413       .  A
C871       Br878   1.938       .  S
C872        C873   1.413       .  A
C873        C874   1.412       .  A
C873       Br880   1.928       .  S
C874        C875   1.420       .  A
C874       Br879   1.935       .  S
C875        C876   1.415       .  A
C876       Br877   1.915       .  S
C881        C882   1.415       .  A
C881        C886   1.411       .  A
C881       Br888   1.936       .  S
C882        C883   1.428       .  A
C883        C884   1.417       .  A
C883       Br890   1.939       .  S
C884        C885   1.411       .  A
C884       Br889   1.921       .  S
C885        C886   1.422       .  A
C886       Br887   1.937       .  S
C891        C892   1.409       .  A
C891        C896   1.416       .  A
C891       Br898   1.936       .  S
C892        C893   1.404       .  A
C893        C894   1.406       .  A
C893       Br900   1.941       .  S
C894        C895   1.434       .  A
C894       Br899   1.944       .  S
C895        C896   1.423       .  A
C896       Br897   1.919       .  S
C901        C902   1.404       .  A
C901        C906   1.403       .  A
C901       Br908   1.934       .  S
C902        C903   1.411       .  A
C903        C904   1.412       .  A
C903       Br910   1.923       .  S
C904        C905   1.407       .  A
C904       Br909   1.927       .  S
C905        C906   1.419       .  A
C906       Br907   1.934       .  S
C911        C912   1.421       .  A
C911        C916   1.403       .  A
C911       Br918   1.938       .  S
C912        C913   1.416       .  A
C913        C914   1.419       .  A
C913       Br920   1.923       .  S
C914        C915   1.412       .  A
C914       Br919   1.929       .  S
C915        C916   1.408       .  A
C916       Br917   1.938       .  S
C921        C922   1.401       .  A
C921        C926   1.406       .  A
C921       Br928   1.929       .  S
C922        C923   1.401       .  A
C923        C924   1.405       .  A
C923       Br930   1.926       .  S
C924        C925   1.415       .  A
C924       Br929   1.919       .  S
C925        C926   1.414       .  A
C926       Br927   1.910       .  S
C931        C932   1.418       .  A
C931        C936   1.399       .  A
C931       Br938   1.933       .  S
C932        C933   1.406       .  A
C933        C934   1.409       .  A
C933       Br940   1.927       .  S
C934        C935   1.412       .  A
C934       Br939   1.929       .  S
C935        C936   1.404       .  A
C936       Br937   1.930       .  S
C941        C942   1.426       .  A
C941        C946   1.415       .  A
C941       Br948   1.933       .  S
C942        C943   1.422       .  A
C943        C944   1.408       .  A
C943       Br950   1.939       .  S
C944        C945   1.414       .  A
C944       Br949   1.938       .  S
C945        C946   1.404       .  A
C946       Br947   1.928       .  S
C951        C952   1.414       .  A
C951        C956   1.416       .  A
C951       Br958   1.929       .  S
C952        C953   1.409       .  A
C953        C954   1.392       .  A
C953       Br960   1.932       .  S
C954        C955   1.409       .  A
C954       Br959   1.942       .  S
C955        C956   1.413       .  A
C956       Br957   1.927       .  S
C961        C962   1.410       .  A
C961        C966   1.410       .  A
C961       Br968   1.922       .  S
C962        C963   1.402       .  A
C963        C964   1.402       .  A
C963       Br970   1.934       .  S
C964        C965   1.419       .  A
C964       Br969   1.930       .  S
C965        C966   1.406       .  A
C966       Br967   1.927       .  S
C971        C972   1.415       .  A
C971        C976   1.406       .  A
C971       Br978   1.935       .  S
C972        C973   1.420       .  A
C973        C974   1.415       .  A
C973       Br980   1.936       .  S
C974        C975   1.413       .  A
C974       Br979   1.919       .  S
C975        C976   1.417       .  A
C976       Br977   1.938       .  S
C981        C982   1.409   1_554  A
C981        C986   1.408       .  A
C981       Br988   1.935       .  S
C982        C983   1.411       .  A
C983        C984   1.419       .  A
C983       Br990   1.933       .  S
C984        C985   1.424       .  A
C984       Br989   1.926       .  S
C985        C986   1.418   1_556  A
C986       Br987   1.925       .  S
C991        C992   1.410   1_554  A
C991        C996   1.407       .  A
C991       Br998   1.917       .  S
C992        C993   1.411       .  A
C993        C994   1.400       .  A
C993      Br1000   1.935       .  S
C994        C995   1.407       .  A
C994       Br999   1.932       .  S
C995        C996   1.408   1_556  A
C996       Br997   1.931       .  S
C1001      C1002   1.422       .  A
C1001      C1006   1.402       .  A
C1001     Br1008   1.911       .  S
C1002      C1003   1.414   1_556  A
C1003      C1004   1.402       .  A
C1003     Br1010   1.915       .  S
C1004      C1005   1.404   1_554  A
C1004     Br1009   1.934       .  S
C1005      C1006   1.400       .  A
C1006     Br1007   1.939       .  S
C1011      C1012   1.416   1_554  A
C1011      C1016   1.403       .  A
C1011     Br1018   1.916       .  S
C1012      C1013   1.418       .  A
C1013      C1014   1.410       .  A
C1013     Br1020   1.923       .  S
C1014      C1015   1.412       .  A
C1014     Br1019   1.935       .  S
C1015      C1016   1.404   1_556  A
C1016     Br1017   1.933       .  S
C1021      C1022   1.414   1_655  A
C1021      C1026   1.416       .  A
C1021     Br1028   1.931       .  S
C1022      C1023   1.412       .  A
C1023      C1024   1.403       .  A
C1023     Br1030   1.934       .  S
C1024      C1025   1.408   1_455  A
C1024     Br1029   1.923       .  S
C1025      C1026   1.417       .  A
C1026     Br1027   1.921       .  S
C1031      C1032   1.407       .  A
C1031      C1036   1.409       .  A
C1031     Br1038   1.922       .  S
C1032      C1033   1.410       .  A
C1033      C1034   1.418       .  A
C1033     Br1040   1.924       .  S
C1034      C1035   1.414       .  A
C1034     Br1039   1.921       .  S
C1035      C1036   1.416       .  A
C1036     Br1037   1.932       .  S
C1041      C1042   1.411       .  A
C1041      C1046   1.417       .  A
C1041     Br1048   1.930       .  S
C1042      C1043   1.403   1_655  A
C1043      C1044   1.408       .  A
C1043     Br1050   1.919       .  S
C1044      C1045   1.413   1_455  A
C1044     Br1049   1.920       .  S
C1045      C1046   1.421       .  A
C1046     Br1047   1.924       .  S
C1051      C1052   1.419   1_655  A
C1051      C1056   1.414       .  A
C1051     Br1058   1.939       .  S
C1052      C1053   1.418       .  A
C1053      C1054   1.413       .  A
C1053     Br1060   1.931       .  S
C1054      C1055   1.414       .  A
C1054     Br1059   1.919       .  S
C1055      C1056   1.418   1_455  A
C1056     Br1057   1.920       .  S
C1061      C1062   1.413       .  A
C1061      C1066   1.418       .  A
C1061     Br1068   1.930       .  S
C1062      C1063   1.409       .  A
C1063      C1064   1.407       .  A
C1063     Br1070   1.934       .  S
C1064      C1065   1.415       .  A
C1064     Br1069   1.921       .  S
C1065      C1066   1.418       .  A
C1066     Br1067   1.922       .  S
C1071      C1072   1.411       .  A
C1071      C1076   1.416       .  A
C1071     Br1078   1.930       .  S
C1072      C1073   1.413       .  A
C1073      C1074   1.418       .  A
C1073     Br1080   1.927       .  S
C1074      C1075   1.410       .  A
C1074     Br1079   1.918       .  S
C1075      C1076   1.418       .  A
C1076     Br1077   1.935       .  S
C1081      C1082   1.407       .  A
C1081      C1086   1.410       .  A
C1081     Br1088   1.938       .  S
C1082      C1083   1.410       .  A
C1083      C1084   1.418       .  A
C1083     Br1090   1.931       .  S
C1084      C1085   1.421       .  A
C1084     Br1089   1.919       .  S
C1085      C1086   1.434       .  A
C1086     Br1087   1.934       .  S
C1091      C1092   1.413       .  A
C1091      C1096   1.405       .  A
C1091     Br1098   1.935       .  S
C1092      C1093   1.411       .  A
C1093      C1094   1.420       .  A
C1093     Br1100   1.932       .  S
C1094      C1095   1.427       .  A
C1094     Br1099   1.928       .  S
C1095      C1096   1.414       .  A
C1096     Br1097   1.929       .  S
C1101      C1102   1.412       .  A
C1101      C1106   1.403       .  A
C1101     Br1108   1.935       .  S
C1102      C1103   1.412       .  A
C1103      C1104   1.418       .  A
C1103     Br1110   1.932       .  S
C1104      C1105   1.424       .  A
C1104     Br1109   1.926       .  S
C1105      C1106   1.412       .  A
C1106     Br1107   1.929       .  S
C1111      C1112   1.404       .  A
C1111      C1116   1.405       .  A
C1111     Br1118   1.930       .  S
C1112      C1113   1.407       .  A
C1113      C1114   1.412       .  A
C1113     Br1120   1.930       .  S
C1114      C1115   1.417       .  A
C1114     Br1119   1.923       .  S
C1115      C1116   1.417       .  A
C1116     Br1117   1.925       .  S
C1121      C1122   1.410       .  A
C1121      C1126   1.417       .  A
C1121     Br1128   1.932       .  S
C1122      C1123   1.412       .  A
C1123      C1124   1.403       .  A
C1123     Br1130   1.936       .  S
C1124      C1125   1.413       .  A
C1124     Br1129   1.928       .  S
C1125      C1126   1.426       .  A
C1126     Br1127   1.930       .  S
C1131      C1132   1.405       .  A
C1131      C1136   1.399       .  A
C1131     Br1138   1.928       .  S
C1132      C1133   1.408       .  A
C1133      C1134   1.408       .  A
C1133     Br1140   1.934       .  S
C1134      C1135   1.417       .  A
C1134     Br1139   1.922       .  S
C1135      C1136   1.410       .  A
C1136     Br1137   1.927       .  S
C1141      C1142   1.417       .  A
C1141      C1146   1.422       .  A
C1141     Br1148   1.921       .  S
C1142      C1143   1.410       .  A
C1143      C1144   1.403       .  A
C1143     Br1150   1.915       .  S
C1144      C1145   1.413       .  A
C1144     Br1149   1.929       .  S
C1145      C1146   1.421       .  A
C1146     Br1147   1.922       .  S
C1151      C1152   1.413       .  A
C1151      C1156   1.419       .  A
C1151     Br1158   1.912       .  S
C1152      C1153   1.409       .  A
C1153      C1154   1.413       .  A
C1153     Br1160   1.932       .  S
C1154      C1155   1.420       .  A
C1154     Br1159   1.923       .  S
C1155      C1156   1.415       .  A
C1156     Br1157   1.924       .  S
C1161      C1162   1.409       .  A
C1161      C1166   1.408       .  A
C1161     Br1168   1.933       .  S
C1162      C1163   1.411       .  A
C1163      C1164   1.416       .  A
C1163     Br1170   1.934       .  S
C1164      C1165   1.421       .  A
C1164     Br1169   1.918       .  S
C1165      C1166   1.415       .  A
C1166     Br1167   1.919       .  S
C1171      C1172   1.420       .  A
C1171      C1176   1.417       .  A
C1171     Br1178   1.922       .  S
C1172      C1173   1.417       .  A
C1173      C1174   1.415       .  A
C1173     Br1180   1.924       .  S
C1174      C1175   1.408       .  A
C1174     Br1179   1.916       .  S
C1175      C1176   1.411       .  A
C1176     Br1177   1.932       .  S
