geometry optimzed in LAMMPS
_audit_creation_date              2020-11-30 
_audit_creation_method            'lammps2cif' 
_symmetry_space_group_name_H-M    'P1' 
_symmetry_Int_Tables_number       1 
_symmetry_cell_setting            triclinic 
loop_ 
_symmetry_equiv_pos_as_xyz 
  x,y,z 
_cell_length_a                    35.72805301 
_cell_length_b                    39.0878447960591 
_cell_length_c                    38.3617889475337 
_cell_angle_alpha                 89.37402310047679 
_cell_angle_beta                  89.08063232667133 
_cell_angle_gamma                 89.60415095162324 
loop_ 
_atom_site_label 
_atom_site_type_symbol 
_atom_site_fract_x 
_atom_site_fract_y 
_atom_site_fract_z 
_atom_site_charge 
Zr1        Zr  0.79753340  0.79050519  0.78320615     2.17500
O2          O  0.85893954  0.81624413  0.77393023    -0.51900
O3          O  0.77977969  0.80602758  0.84277786    -0.75100
O4          O  0.79508313  0.85166153  0.77623073    -0.81800
O5          O  0.84663899  0.70960413  0.80994439    -0.83600
O6          O  0.75429427  0.86615268  0.73399843    -0.79200
O7          O  0.84814991  0.76745389  0.81565398    -0.90800
O8          O  0.72205088  0.78381716  0.85334680    -0.76800
O9          O  0.73241151  0.80224123  0.78137095    -0.86300
O10         O  0.76919194  0.74092855  0.80832811    -0.86000
O11         O  0.78575480  0.80022493  0.72260454    -0.72700
O12         O  0.81912553  0.74304592  0.74898373    -0.84900
Zr13       Zr  0.71082634  0.71585255  0.71011262     2.26400
Zr14       Zr  0.71997997  0.81242059  0.72106725     2.06300
Zr15       Zr  0.78992564  0.69344426  0.77426583     2.10000
Zr16       Zr  0.70379311  0.75159171  0.80435620     1.78800
O17         O  0.83578289  0.65496126  0.74773687    -0.93700
O18         O  0.65031114  0.78824685  0.81850311    -0.41500
O19         O  0.72391164  0.70468935  0.77007109    -0.78100
O20         O  0.68879645  0.76261916  0.74510492    -0.96800
O21         O  0.73985700  0.76504783  0.68522047    -0.90100
O22         O  0.77594973  0.70227597  0.71319138    -0.93000
C23         C  0.75064907  0.80078696  0.86222180     1.00800
C24         C  0.86174337  0.73769177  0.82126513     1.13700
C25         C  0.77994886  0.87374951  0.75604242     1.04500
O26         O  0.67403389  0.85011859  0.74868779    -0.95100
O27         O  0.66236453  0.80232762  0.68833703    -0.90900
O28         O  0.65664976  0.74454401  0.68662501    -0.84000
C29         C  0.64484326  0.77488171  0.68026466     1.11100
O30         O  0.86587250  0.77939688  0.68898829    -0.97100
Zr31       Zr  0.80483054  0.75187599  0.68853856     1.88900
O32         O  0.72721498  0.69957011  0.65166699    -0.73700
O33         O  0.72211865  0.84681069  0.66774236    -0.53000
O34         O  0.81302074  0.79262907  0.64059851    -0.97700
O35         O  0.85290237  0.70971651  0.67346375    -0.54900
O36         O  0.78134480  0.72524313  0.63627092    -0.74300
C37         C  0.75290449  0.70676657  0.62941558     0.98100
O38         O  0.66077570  0.67790632  0.69197442    -0.63100
O39         O  0.78912249  0.65886118  0.82751161    -0.57900
O40         O  0.70309434  0.65842715  0.73131219    -0.94600
O41         O  0.74928710  0.64158052  0.76768313    -0.93000
O42         O  0.70376595  0.71142966  0.85331599    -0.93300
O43         O  0.64673387  0.71789551  0.80806411    -0.92100
C44         C  0.71850664  0.63609043  0.75104980     1.16900
H45         H  0.77640685  0.73768007  0.83230129     0.32900
H46         H  0.66196443  0.76538984  0.74503355     0.43700
H47         H  0.78179950  0.68200323  0.69992769     0.37300
H48         H  0.79985945  0.81961321  0.71403104     0.33700
H49         H  0.65935532  0.81178704  0.81396294     0.25500
H50         H  0.70839123  0.86810710  0.67371672     0.31500
H51         H  0.79028704  0.80721556  0.64157048     0.37400
H52         H  0.71667472  0.69079126  0.84423583     0.31800
H53         H  0.81133810  0.64371493  0.82528005     0.30700
H54         H  0.86031815  0.66496028  0.75334697     0.32400
H55         H  0.83921896  0.68947287  0.66526247     0.31400
H56         H  0.63986346  0.71403150  0.78352253     0.35400
H57         H  0.63740002  0.68630361  0.70327745     0.28100
H58         H  0.86073341  0.83528021  0.79058076     0.32300
H59         H  0.87871261  0.77246658  0.66708925     0.35200
H60         H  0.79533991  0.67480503  0.84641087     0.27800
H61         H  0.65731780  0.68211135  0.66672042     0.40700
H62         H  0.65550351  0.85533915  0.73043803     0.30700
H63         H  0.63193605  0.78430970  0.79994832     0.38300
H64         H  0.86341031  0.70243692  0.69610142     0.30200
H65         H  0.74855804  0.85393901  0.66512898     0.30200
H66         H  0.85822355  0.82733321  0.75062051     0.30500
C67         C  0.86253022  0.00586108  0.75702046    -0.03000
Zr68       Zr  0.79930227  0.22098877  0.71558278     2.17500
O69         O  0.85371270  0.19192296  0.68987419    -0.51900
O70         O  0.78623456  0.20837616  0.65545369    -0.75100
O71         O  0.80306317  0.16120496  0.73312721    -0.81800
O72         O  0.84166341  0.30451334  0.69251034    -0.83600
O73         O  0.75384946  0.14613732  0.76804396    -0.79200
O74         O  0.85774880  0.25126948  0.71081060    -0.90800
O75         O  0.72961700  0.23091811  0.64168444    -0.76800
O76         O  0.73428735  0.20827872  0.71671472    -0.86300
O77         O  0.76957694  0.27028631  0.69074758    -0.86000
O78         O  0.78448431  0.21073825  0.77598205    -0.72700
O79         O  0.81654371  0.26888784  0.75001903    -0.84900
Zr80       Zr  0.70550783  0.29503885  0.79057437     2.26400
Zr81       Zr  0.71838126  0.19929883  0.77705223     2.06300
Zr82       Zr  0.78459283  0.31801099  0.72674342     2.10000
Zr83       Zr  0.70460566  0.25819161  0.69351617     1.78800
O84         O  0.82906026  0.35640920  0.75324543    -0.93700
O85         O  0.65729977  0.21693342  0.67726887    -0.41500
O86         O  0.71929176  0.30525049  0.72998909    -0.78100
O87         O  0.68716668  0.24882668  0.75348037    -0.96800
O88         O  0.73604429  0.24580575  0.81378265    -0.90100
O89         O  0.77027088  0.30874523  0.78763134    -0.93000
C90         C  0.75971750  0.21439848  0.63421488     1.00800
C91         C  0.86450537  0.27889250  0.69385996     1.13700
C92         C  0.78480076  0.13941665  0.75184107     1.04500
O93         O  0.67428311  0.16448051  0.74552137    -0.95100
O94         O  0.65986485  0.20785484  0.81036511    -0.90900
O95         O  0.65114371  0.26540143  0.81332445    -0.84000
C96         C  0.64087261  0.23459537  0.81909333     1.11100
O97         O  0.86189523  0.23031175  0.81297623    -0.97100
Zr98       Zr  0.80117777  0.25877473  0.80961794     1.88900
O99         O  0.72289717  0.30757625  0.85058602    -0.73700
O100        O  0.71788054  0.16095848  0.82758396    -0.53000
O101        O  0.80843554  0.21814494  0.85763318    -0.97700
O102        O  0.85005552  0.30079751  0.81893459    -0.54900
O103        O  0.77989896  0.28460512  0.86198838    -0.74300
C104        C  0.75053756  0.30114327  0.87070220     0.98100
O105        O  0.65368193  0.33215882  0.80899296    -0.63100
O106        O  0.78373316  0.35306187  0.67381248    -0.57900
O107        O  0.69716171  0.35319182  0.76927422    -0.94600
O108        O  0.74389762  0.36932134  0.73231995    -0.93000
O109        O  0.70227448  0.30461982  0.65068176    -0.93300
O110        O  0.64207022  0.28229834  0.68681314    -0.92100
C111        C  0.71301357  0.37540922  0.74915755     1.16900
H112        H  0.77814716  0.27461479  0.66711572     0.32900
H113        H  0.66039751  0.24570992  0.75362281     0.43700
H114        H  0.77543375  0.32887593  0.80107666     0.37300
H115        H  0.79875161  0.19235227  0.78634018     0.33700
H116        H  0.67139967  0.19551825  0.67265817     0.25500
H117        H  0.71216413  0.17579287  0.84775641     0.31500
H118        H  0.78600517  0.20347054  0.85665076     0.37400
H119        H  0.70610991  0.29359726  0.62778510     0.31800
H120        H  0.80897003  0.36329125  0.67201236     0.30700
H121        H  0.82087916  0.37958854  0.74584720     0.32400
H122        H  0.86160301  0.29377963  0.84120669     0.31400
H123        H  0.63533635  0.29132563  0.71011886     0.35400
H124        H  0.63138581  0.32474578  0.79610688     0.28100
H125        H  0.84412526  0.17124933  0.67839480     0.32300
H126        H  0.86747740  0.22291071  0.78883580     0.35200
H127        H  0.78292326  0.33661628  0.65439745     0.27800
H128        H  0.64823150  0.32648534  0.83377777     0.40700
H129        H  0.67825722  0.14092107  0.75451837     0.30700
H130        H  0.64299352  0.21211888  0.69906958     0.38300
H131        H  0.83674957  0.32241464  0.82440462     0.30200
H132        H  0.69524363  0.14677989  0.82498528     0.30200
H133        H  0.86841298  0.18310741  0.70974784     0.30500
C134        C  0.62928574  0.50807951  0.74270049    -0.03000
C135        C  0.74492544  0.63729692  0.49438991    -0.03000
Zr136      Zr  0.71206711  0.79597928  0.20833225     2.17500
O137        O  0.66319995  0.82816501  0.17789924    -0.51900
O138        O  0.73297038  0.80462411  0.14801774    -0.75100
O139        O  0.70640846  0.85578730  0.22358640    -0.81800
O140        O  0.65797925  0.71490809  0.19221109    -0.83600
O141        O  0.75164306  0.87109893  0.26091930    -0.79200
O142        O  0.65268647  0.77257019  0.19357869    -0.90800
O143        O  0.78904152  0.77910150  0.13751276    -0.76800
O144        O  0.77747422  0.80636892  0.21079111    -0.86300
O145        O  0.73981143  0.74444383  0.18733150    -0.86000
O146        O  0.72261382  0.80671069  0.26922430    -0.72700
O147        O  0.68852526  0.75096522  0.24587676    -0.84900
Zr148      Zr  0.79591107  0.71988369  0.28670693     2.26400
Zr149      Zr  0.78887790  0.81721161  0.27145839     2.06300
Zr150      Zr  0.71670684  0.69925279  0.22440013     2.10000
Zr151      Zr  0.80558349  0.75382008  0.19165688     1.78800
O152        O  0.66989553  0.66109399  0.24996587    -0.93700
O153        O  0.85703589  0.79307911  0.17990777    -0.41500
O154        O  0.78310208  0.70792351  0.22726873    -0.78100
O155        O  0.81906771  0.76566790  0.25065609    -0.96800
O156        O  0.76813066  0.77094359  0.30873221    -0.90100
O157        O  0.73035475  0.70901898  0.28481341    -0.93000
C158        C  0.76068297  0.79643913  0.12806251     1.00800
C159        C  0.64002191  0.74327139  0.18564603     1.13700
C160        C  0.72186146  0.87779932  0.24308642     1.04500
O161        O  0.83555248  0.85265826  0.24181708    -0.95100
O162        O  0.84549960  0.80416811  0.30675184    -0.90900
O163        O  0.84666589  0.74657157  0.31644173    -0.84000
C164        C  0.86013745  0.77651151  0.31982291     1.11100
O165        O  0.64178528  0.78846337  0.30778919    -0.97100
Zr166      Zr  0.70289987  0.76048939  0.30604534     1.88900
O167        O  0.77997347  0.70742354  0.34624376    -0.73700
O168        O  0.79039698  0.85296874  0.32302312    -0.53000
O169        O  0.69631599  0.80441960  0.35030944    -0.97700
O170        O  0.65341474  0.72111431  0.32393712    -0.54900
O171        O  0.72752670  0.73716334  0.36001653    -0.74300
C172        C  0.75534098  0.71789725  0.36811009     0.98100
O173        O  0.85318670  0.68560033  0.28963658    -0.63100
O174        O  0.71740668  0.66711099  0.17037335    -0.57900
O175        O  0.79564486  0.65885663  0.27783520    -0.94600
O176        O  0.75364286  0.64564964  0.23630495    -0.93000
O177        O  0.81386068  0.71350152  0.14416714    -0.93300
O178        O  0.86407556  0.72158163  0.19479193    -0.92100
C179        C  0.78050396  0.63747468  0.25730421     1.16900
H180        H  0.73277597  0.73992319  0.16362632     0.32900
H181        H  0.84595736  0.76734437  0.25206921     0.43700
H182        H  0.72365879  0.68955982  0.29928757     0.37300
H183        H  0.70797820  0.82544101  0.27837181     0.33700
H184        H  0.86742146  0.78598260  0.15700270     0.25500
H185        H  0.79936812  0.87550393  0.31444992     0.31500
H186        H  0.72221120  0.80897860  0.35772031     0.37400
H187        H  0.80683161  0.69106361  0.15444196     0.31800
H188        H  0.74407618  0.66121257  0.16615913     0.30700
H189        H  0.68369398  0.64664642  0.26685317     0.32400
H190        H  0.66386864  0.70754317  0.34347290     0.31400
H191        H  0.85733785  0.69979304  0.20663913     0.35400
H192        H  0.87331980  0.69962457  0.27882820     0.28100
H193        H  0.67578490  0.84726741  0.16535309     0.32300
H194        H  0.64182374  0.80400297  0.28722865     0.35200
H195        H  0.70543295  0.64506755  0.17663695     0.27800
H196        H  0.85951714  0.68349767  0.31462452     0.40700
H197        H  0.82143553  0.86557974  0.22392910     0.30700
H198        H  0.84488516  0.81546171  0.17523077     0.38300
H199        H  0.65176582  0.70473211  0.30454986     0.30200
H200        H  0.76378163  0.85687787  0.32947852     0.30200
H201        H  0.64712186  0.83915602  0.19589906     0.30500
C202        C  0.74297205  0.86671006  0.99738396    -0.03000
C203        C  0.49966670  0.75899022  0.10216956    -0.03000
C204        C  0.36709807  0.99856300  0.74791876    -0.03000
C205        C  0.73784941  0.35822380  0.01025908    -0.03000
C206        C  0.24834278  0.63290422  0.00787998    -0.03000
C207        C  0.14829778  0.50027454  0.75258929    -0.03000
C208        C  0.74970267  0.14951340  0.49860675    -0.03000
C209        C  0.99837929  0.74941847  0.39802844    -0.03000
Zr210      Zr  0.29786738  0.72165081  0.21817473     2.17500
O211        O  0.36036996  0.69729513  0.20953376    -0.51900
O212        O  0.28047400  0.70096541  0.16079941    -0.75100
O213        O  0.30047392  0.66117218  0.23120124    -0.81800
O214        O  0.34609838  0.80746870  0.19821156    -0.83600
O215        O  0.25323463  0.64415999  0.26715254    -0.79200
O216        O  0.35144215  0.74978693  0.19322397    -0.90800
O217        O  0.22227529  0.72116010  0.14925145    -0.76800
O218        O  0.23322483  0.70846116  0.21961089    -0.86300
O219        O  0.26889284  0.77096934  0.19306246    -0.86000
O220        O  0.28425771  0.71140581  0.27885272    -0.72700
O221        O  0.31504377  0.76911176  0.25359240    -0.84900
Zr222      Zr  0.20366737  0.79566570  0.29003198     2.26400
Zr223      Zr  0.21860614  0.69846231  0.28016069     2.06300
Zr224      Zr  0.28518683  0.81874774  0.22888680     2.10000
Zr225      Zr  0.20383452  0.75827569  0.19579394     1.78800
O226        O  0.33101013  0.85599177  0.25521612    -0.93700
O227        O  0.14891712  0.72352098  0.18512668    -0.41500
O228        O  0.21934503  0.80666114  0.23009220    -0.78100
O229        O  0.18705194  0.74760436  0.25528898    -0.96800
O230        O  0.23356048  0.74694037  0.31519372    -0.90100
O231        O  0.26846629  0.80916972  0.28905691    -0.93000
C232        C  0.25151476  0.70372379  0.14152855     1.00800
C233        C  0.36407279  0.78005992  0.18886665     1.13700
C234        C  0.28281238  0.63789351  0.24828216     1.04500
O235        O  0.17242922  0.65914277  0.25783263    -0.95100
O236        O  0.15971112  0.70737187  0.31340438    -0.90900
O237        O  0.15524690  0.76493950  0.32104817    -0.84000
C238        C  0.14352475  0.73432631  0.32581525     1.11100
O239        O  0.35986793  0.73313303  0.31810633    -0.97100
Zr240      Zr  0.29832470  0.76006923  0.31366086     1.88900
O241        O  0.21620492  0.81122666  0.34961237    -0.73700
O242        O  0.22603191  0.66969347  0.33628536    -0.53000
O243        O  0.30084724  0.71917027  0.36197721    -0.97700
O244        O  0.34600938  0.80203422  0.32725449    -0.54900
O245        O  0.27244477  0.78839179  0.36461907    -0.74300
C246        C  0.24261040  0.80567773  0.37124198     0.98100
O247        O  0.14136732  0.82209308  0.28702773    -0.63100
O248        O  0.28294124  0.85328462  0.17571040    -0.57900
O249        O  0.20396747  0.85735448  0.28205906    -0.94600
O250        O  0.24818013  0.87191873  0.24151713    -0.93000
O251        O  0.20807429  0.79247447  0.14244117    -0.93300
O252        O  0.14678461  0.79224977  0.19024161    -0.92100
C253        C  0.22059935  0.87956496  0.26251383     1.16900
H254        H  0.27742336  0.77436920  0.16926874     0.32900
H255        H  0.16029052  0.74428302  0.25623884     0.43700
H256        H  0.27300538  0.82936834  0.30259452     0.37300
H257        H  0.29875634  0.69246455  0.28790196     0.33700
H258        H  0.14736756  0.72226456  0.15941996     0.25500
H259        H  0.20908853  0.64979847  0.33543544     0.31500
H260        H  0.27456658  0.71682304  0.37017984     0.37400
H261        H  0.18708435  0.78458147  0.12809210     0.31800
H262        H  0.30697667  0.86576128  0.17502294     0.30700
H263        H  0.31641140  0.87076962  0.27130536     0.32400
H264        H  0.33231700  0.82383281  0.33090490     0.31400
H265        H  0.13365181  0.78965214  0.21302826     0.35400
H266        H  0.14198217  0.83762576  0.26647306     0.28100
H267        H  0.35848178  0.68180802  0.18943338     0.32300
H268        H  0.36901412  0.73902228  0.34151211     0.35200
H269        H  0.28516901  0.83667219  0.15648960     0.27800
H270        H  0.12425106  0.80374309  0.27983589     0.40700
H271        H  0.17544678  0.63805031  0.27206593     0.30700
H272        H  0.15626488  0.70013456  0.19260585     0.38300
H273        H  0.36010928  0.80552610  0.30508465     0.30200
H274        H  0.25153682  0.65963405  0.33541829     0.30200
H275        H  0.36551936  0.68233915  0.22992015     0.30500
C276        C  0.24568227  0.86928245  0.50812174    -0.03000
C277        C  0.86776091  0.50589682  0.25834450    -0.03000
Zr278      Zr  0.77053918  0.30170743  0.20919379     2.17500
O279        O  0.75044845  0.35018876  0.17327294    -0.51900
O280        O  0.83384527  0.29649750  0.18636270    -0.75100
O281        O  0.79304034  0.35562157  0.23049635    -0.81800
O282        O  0.72706489  0.24423927  0.14196848    -0.83600
O283        O  0.78406248  0.35435368  0.28930325    -0.79200
O284        O  0.76491997  0.29046496  0.14839063    -0.90800
O285        O  0.85527084  0.24578726  0.20803752    -0.76800
O286        O  0.80183607  0.28591383  0.26140530    -0.86300
O287        O  0.78153066  0.24192602  0.20341940    -0.86000
O288        O  0.72785911  0.31657197  0.25545744    -0.72700
O289        O  0.71121652  0.27483391  0.20119190    -0.84900
Zr290      Zr  0.71120666  0.21294824  0.29567461     2.26400
Zr291      Zr  0.75810539  0.29857664  0.30801498     2.06300
Zr292      Zr  0.72293764  0.21445694  0.19811721     2.10000
Zr293      Zr  0.81349155  0.22626855  0.25466518     1.78800
O294        O  0.67019966  0.19854009  0.16239532    -0.93700
O295        O  0.87024490  0.24383761  0.28374352    -0.41500
O296        O  0.75446093  0.19765813  0.25001757    -0.78100
O297        O  0.77144082  0.23897293  0.30171065    -0.96800
O298        O  0.69849820  0.27260311  0.30084220    -0.90100
O299        O  0.67971693  0.22864876  0.24372032    -0.93000
C300        C  0.85711256  0.27145107  0.18692034     1.00800
C301        C  0.74529631  0.27030900  0.13024718     1.13700
C302        C  0.79447926  0.36936838  0.26059258     1.04500
O303        O  0.80816100  0.31460093  0.34676815    -0.95100
O304        O  0.75398713  0.26648697  0.36456282    -0.90900
O305        O  0.71416063  0.22204894  0.35703851    -0.84000
C306        C  0.73554812  0.23998163  0.37571131     1.11100
O307        O  0.65732133  0.34022081  0.21286773    -0.97100
Zr308      Zr  0.66935887  0.28885325  0.24756282     1.88900
O309        O  0.64608416  0.21884909  0.31314011    -0.73700
O310        O  0.71482714  0.33625791  0.33910869    -0.53000
O311        O  0.63852147  0.33457903  0.28000092    -0.97700
O312        O  0.62116509  0.27773097  0.20495427    -0.54900
O313        O  0.62127658  0.26397286  0.28335337    -0.74300
C314        C  0.61935547  0.23953904  0.30562619     0.98100
O315        O  0.72919487  0.16576143  0.33432277    -0.63100
O316        O  0.76385348  0.17574111  0.16551270    -0.57900
O317        O  0.69151055  0.15746960  0.27592160    -0.94600
O318        O  0.70145462  0.15778345  0.21746857    -0.93000
O319        O  0.83374279  0.17368247  0.22639242    -0.93300
O320        O  0.83408317  0.18354326  0.29703021    -0.92100
C321        C  0.69158431  0.14283101  0.24624859     1.16900
H322        H  0.79546806  0.23662360  0.18243618     0.32900
H323        H  0.78370368  0.23030693  0.32205930     0.43700
H324        H  0.65663973  0.21618305  0.24152422     0.37300
H325        H  0.72333585  0.34096104  0.25555174     0.33700
H326        H  0.89025029  0.22905981  0.27377387     0.25500
H327        H  0.72599856  0.33891626  0.36236530     0.31500
H328        H  0.64152405  0.32810611  0.30482736     0.37400
H329        H  0.86131379  0.17335700  0.22867308     0.31800
H330        H  0.74787047  0.15599450  0.15999531     0.30700
H331        H  0.64921489  0.19476471  0.17912771     0.32400
H332        H  0.59748178  0.28501147  0.21650028     0.31400
H333        H  0.81192083  0.16889571  0.30118699     0.35400
H334        H  0.70593900  0.15316114  0.34018490     0.28100
H335        H  0.77355861  0.36263562  0.16655699     0.32300
H336        H  0.66873809  0.33541609  0.18973060     0.35200
H337        H  0.76840740  0.18726646  0.14274704     0.27800
H338        H  0.74442420  0.14991323  0.31985643     0.40700
H339        H  0.83141654  0.31030010  0.33308343     0.30700
H340        H  0.87574203  0.26693544  0.27421182     0.38300
H341        H  0.61939810  0.25252141  0.20380306     0.30200
H342        H  0.71792893  0.35890426  0.32765028     0.30200
H343        H  0.73667051  0.36570031  0.18926760     0.30500
C344        C  0.62601325  0.00373130  0.24775562    -0.03000
C345        C  0.49931673  0.24698037  0.89729307    -0.03000
Zr346      Zr  0.21529698  0.28749173  0.70097408     2.17500
O347        O  0.16463312  0.32074494  0.67471048    -0.51900
O348        O  0.24201123  0.29880091  0.64401191    -0.75100
O349        O  0.21445986  0.34838097  0.71556944    -0.81800
O350        O  0.15565116  0.20573619  0.68582802    -0.83600
O351        O  0.25982387  0.35842917  0.75500049    -0.79200
O352        O  0.15797871  0.26352135  0.67971796    -0.90800
O353        O  0.29353530  0.26648536  0.63235781    -0.76800
O354        O  0.28126530  0.29321345  0.70594348    -0.86300
O355        O  0.24100559  0.23484716  0.68009209    -0.86000
O356        O  0.22420794  0.29684484  0.76195818    -0.72700
O357        O  0.18786978  0.24269414  0.73573999    -0.84900
Zr358      Zr  0.29129170  0.20530791  0.78282181     2.26400
Zr359      Zr  0.29108969  0.30238487  0.76687860     2.06300
Zr360      Zr  0.21476263  0.18994601  0.71586004     2.10000
Zr361      Zr  0.30707796  0.23981832  0.68697209     1.78800
O362        O  0.16863961  0.15179877  0.74258147    -0.93700
O363        O  0.35984434  0.27727136  0.67376511    -0.41500
O364        O  0.28107911  0.19540249  0.72235857    -0.78100
O365        O  0.31902522  0.24951446  0.74695420    -0.96800
O366        O  0.26459658  0.25761942  0.80282880    -0.90100
O367        O  0.22524285  0.19823877  0.77708529    -0.93000
C368        C  0.26853252  0.28827555  0.62396953     1.00800
C369        C  0.14171414  0.23475802  0.67558709     1.13700
C370        C  0.23211625  0.36830187  0.73591491     1.04500
O371        O  0.33967495  0.33575140  0.73745622    -0.95100
O372        O  0.34574486  0.28752874  0.80343386    -0.90900
O373        O  0.34578570  0.22965075  0.80946738    -0.84000
C374        C  0.35990685  0.25910369  0.81494748     1.11100
O375        O  0.13989100  0.28257060  0.79335651    -0.97100
Zr376      Zr  0.19892042  0.25124216  0.79601230     1.88900
O377        O  0.27106481  0.19796976  0.84289680    -0.73700
O378        O  0.29318623  0.33687269  0.81932201    -0.53000
O379        O  0.19322689  0.29483623  0.84065197    -0.97700
O380        O  0.14504497  0.21536621  0.80995580    -0.54900
O381        O  0.21605901  0.22633906  0.85041551    -0.74300
C382        C  0.24338783  0.20844503  0.86156019     0.98100
O383        O  0.33829992  0.16265559  0.79932557    -0.63100
O384        O  0.21334376  0.16013568  0.66047218    -0.57900
O385        O  0.29246762  0.14515756  0.76717550    -0.94600
O386        O  0.25155920  0.13635749  0.72331929    -0.93000
O387        O  0.31245517  0.19445968  0.64408319    -0.93300
O388        O  0.36617311  0.20857087  0.69050009    -0.92100
C389        C  0.27761960  0.12622562  0.74410986     1.16900
H390        H  0.23461834  0.23114204  0.65606102     0.32900
H391        H  0.34592551  0.24991961  0.74878405     0.43700
H392        H  0.21627108  0.17915773  0.79101110     0.37300
H393        H  0.21078033  0.31651679  0.77055548     0.33700
H394        H  0.34850210  0.30000502  0.66905631     0.25500
H395        H  0.30743208  0.35754073  0.81230731     0.31500
H396        H  0.21928107  0.30185048  0.84507245     0.37400
H397        H  0.32780294  0.20432177  0.62479499     0.31800
H398        H  0.24000420  0.15660388  0.65392662     0.30700
H399        H  0.17877614  0.12845820  0.73892559     0.32400
H400        H  0.15225898  0.20161520  0.83063222     0.31400
H401        H  0.35965117  0.18662801  0.70215625     0.35400
H402        H  0.36194180  0.16977376  0.78760359     0.28100
H403        H  0.17666384  0.33945513  0.66110185     0.32300
H404        H  0.13702175  0.28846135  0.76836613     0.35200
H405        H  0.20404617  0.13696867  0.66647024     0.27800
H406        H  0.34252879  0.16578311  0.82454476     0.40700
H407        H  0.35023216  0.35005349  0.75598210     0.30700
H408        H  0.37273710  0.27999311  0.69621069     0.38300
H409        H  0.14422931  0.19869292  0.79076836     0.30200
H410        H  0.26720664  0.34516770  0.82307068     0.30200
H411        H  0.15099466  0.33211455  0.69411593     0.30500
C412        C  0.99596803  0.25566966  0.60356637    -0.03000
C413        C  0.98358379  0.24851168  0.09340702    -0.03000
Zr414      Zr  0.03193284  0.03807319  0.04835208     2.17500
O415        O  0.04120112  0.07995990  0.09425077    -0.51900
O416        O  0.09447812  0.05793579  0.03676307    -0.75100
O417        O  0.04938726  0.01350525  0.10421628    -0.81800
O418        O  0.97922365  0.10742634  0.99483530    -0.83600
O419        O  0.04614529  0.95562125  0.10269031    -0.79200
O420        O  0.00439280  0.09432883  0.04732956    -0.90800
O421        O  0.11692468  0.03122462  0.98886409    -0.76800
O422        O  0.06152265  0.98654799  0.02983495    -0.86300
O423        O  0.04099027  0.04561784  0.98686340    -0.86000
O424        O  0.98952328  0.99369094  0.06601917    -0.72700
O425        O  0.97171416  0.04805340  0.02414253    -0.84900
Zr426      Zr  0.96535706  0.95836922  0.96051982     2.26400
Zr427      Zr  0.01836814  0.94173180  0.04538183     2.06300
Zr428      Zr  0.98036841  0.05393015  0.96236412     2.10000
Zr429      Zr  0.06898754  0.99333170  0.96830239     1.78800
O430        O  0.92930906  0.09172276  0.94510386    -0.93700
O431        O  0.12015263  0.95362786  0.98038336    -0.41500
O432        O  0.00866407  0.00184113  0.94294218    -0.78100
O433        O  0.02680448  0.94803898  0.98322390    -0.96800
O434        O  0.95733570  0.95172126  0.02203801    -0.90100
O435        O  0.93699877  0.01030405  0.97910803    -0.93000
C436        C  0.11965538  0.05310371  0.01330186     1.00800
C437        C  0.98862801  0.11507688  0.02600097     1.13700
C438        C  0.05357827  0.98391017  0.11836174     1.04500
O439        O  0.07557928  0.90784814  0.04964987    -0.95100
O440        O  0.00533658  0.88667952  0.01589123    -0.90900
O441        O  0.96691937  0.89736389  0.97004422    -0.84000
C442        C  0.98571839  0.87714732  0.98961746     1.11100
O443        O  0.91926451  0.03886516  0.09234179    -0.97100
Zr444      Zr  0.92986917  0.00414261  0.04075157     1.88900
O445        O  0.90039558  0.94403296  0.96999729    -0.73700
O446        O  0.98480619  0.90840078  0.08970777    -0.53000
O447        O  0.90370373  0.96952344  0.08818627    -0.97700
O448        O  0.88102578  0.04718878  0.03248545    -0.54900
O449        O  0.87948644  0.97255839  0.01762468    -0.74300
C450        C  0.87494540  0.95217186  0.99233101     0.98100
O451        O  0.97687451  0.92817772  0.90605067    -0.63100
O452        O  0.02311383  0.08584347  0.92425390    -0.57900
O453        O  0.94030186  0.98226395  0.90697895    -0.94600
O454        O  0.95270041  0.03929921  0.90614591    -0.93000
O455        O  0.08834922  0.02461111  0.91583630    -0.93300
O456        O  0.08711459  0.95841783  0.91852075    -0.92100
C457        C  0.93977957  0.01196605  0.89240259     1.16900
H458        H  0.05602543  0.06539610  0.98120148     0.32900
H459        H  0.03725733  0.92737710  0.97343614     0.43700
H460        H  0.91319795  0.01416583  0.96805277     0.37300
H461        H  0.98561821  0.99291998  0.09097163     0.33700
H462        H  0.14198381  0.96322216  0.96750561     0.25500
H463        H  0.96862884  0.89279116  0.07660312     0.31500
H464        H  0.92501496  0.95560222  0.09665116     0.37400
H465        H  0.09398088  0.04799481  0.92380385     0.31800
H466        H  0.01044247  0.08701483  0.90150771     0.30700
H467        H  0.94133651  0.10944560  0.93015355     0.32400
H468        H  0.86825521  0.04067464  0.01085290     0.31400
H469        H  0.06358458  0.94751876  0.91129685     0.35400
H470        H  0.99971858  0.91431567  0.90993292     0.28100
H471        H  0.06680800  0.07610555  0.10306519     0.32300
H472        H  0.93945623  0.05610224  0.09140192     0.35200
H473        H  0.02198268  0.10957262  0.93299963     0.27800
H474        H  0.95641002  0.91134468  0.90441320     0.40700
H475        H  0.06900511  0.88880780  0.06579006     0.30700
H476        H  0.12593711  0.95713118  0.00523514     0.38300
H477        H  0.89470521  0.06834574  0.02606551     0.30200
H478        H  0.00409144  0.89330235  0.10010627     0.30200
H479        H  0.02415442  0.07339946  0.11378406     0.30500
Zr480      Zr  0.20863632  0.21876184  0.19507868     2.17500
O481        O  0.22645980  0.17150035  0.15701279    -0.51900
O482        O  0.14472792  0.22183787  0.17512049    -0.75100
O483        O  0.18871780  0.16387144  0.21932746    -0.81800
O484        O  0.25275216  0.27868802  0.12448428    -0.83600
O485        O  0.19590705  0.16347445  0.27791767    -0.79200
O486        O  0.22396982  0.22751417  0.13440651    -0.90800
O487        O  0.11677501  0.26690070  0.20197561    -0.76800
O488        O  0.17635621  0.23304129  0.24768283    -0.86300
O489        O  0.19392585  0.27806436  0.18794083    -0.86000
O490        O  0.25156822  0.20544156  0.24078056    -0.72700
O491        O  0.26626339  0.24844714  0.18528792    -0.84900
Zr492      Zr  0.26241471  0.30982428  0.27670474     2.26400
Zr493      Zr  0.21951098  0.22145522  0.29394992     2.06300
Zr494      Zr  0.25183626  0.30835708  0.18015888     2.10000
Zr495      Zr  0.16179348  0.29220994  0.24065984     1.78800
O496        O  0.30139713  0.32630100  0.13979262    -0.93700
O497        O  0.10971632  0.27328267  0.27770582    -0.41500
O498        O  0.21884137  0.32401117  0.23226221    -0.78100
O499        O  0.20403364  0.28113777  0.28743508    -0.96800
O500        O  0.27723971  0.25062450  0.28340984    -0.90100
O501        O  0.29529946  0.29536239  0.22487039    -0.93000
C502        C  0.11682843  0.24196168  0.18048113     1.00800
C503        C  0.24065581  0.24947546  0.11477561     1.13700
C504        C  0.18667361  0.14870647  0.24913283     1.04500
O505        O  0.16369881  0.21535325  0.33073689    -0.95100
O506        O  0.23745265  0.24893873  0.35047227    -0.90900
O507        O  0.26080904  0.30158607  0.33736529    -0.84000
C508        C  0.25211400  0.27801325  0.35898177     1.11100
O509        O  0.32418364  0.18860699  0.19203489    -0.97100
Zr510      Zr  0.30866565  0.23598026  0.23054354     1.88900
O511        O  0.32581578  0.30496478  0.29792579    -0.73700
O512        O  0.25333875  0.17732119  0.32613307    -0.53000
O513        O  0.34358577  0.18897658  0.25696315    -0.97700
O514        O  0.35757292  0.25899050  0.19215856    -0.54900
O515        O  0.35117720  0.25768374  0.27249489    -0.74300
C516        C  0.35162651  0.28234100  0.29406119     0.98100
O517        O  0.23788642  0.35869221  0.30909863    -0.63100
O518        O  0.20773177  0.34663586  0.15138656    -0.57900
O519        O  0.28932494  0.36233554  0.25542553    -0.94600
O520        O  0.28068122  0.36328959  0.19684282    -0.93000
O521        O  0.13428386  0.34016628  0.20881695    -0.93300
O522        O  0.14060742  0.33753022  0.27949762    -0.92100
C523        C  0.29204908  0.37666086  0.22542336     1.16900
H524        H  0.17859639  0.28205585  0.16776403     0.32900
H525        H  0.19268328  0.28941061  0.30878809     0.43700
H526        H  0.31811915  0.30829638  0.22208474     0.37300
H527        H  0.25723928  0.18123877  0.24108042     0.33700
H528        H  0.10559546  0.24912376  0.27136507     0.25500
H529        H  0.27230132  0.18972164  0.33954797     0.31500
H530        H  0.32423181  0.17435732  0.26817527     0.37400
H531        H  0.13855988  0.33480731  0.18390304     0.31800
H532        H  0.21625182  0.36992828  0.15712671     0.30700
H533        H  0.29127282  0.34690803  0.12791335     0.32400
H534        H  0.34526728  0.26256914  0.16944551     0.31400
H535        H  0.15957445  0.35572661  0.27658251     0.35400
H536        H  0.26011116  0.37072890  0.31781228     0.28100
H537        H  0.20284649  0.16323523  0.14704896     0.32300
H538        H  0.31906080  0.19739825  0.16826506     0.35200
H539        H  0.21356211  0.34424843  0.12621226     0.27800
H540        H  0.22723583  0.37435019  0.29131310     0.40700
H541        H  0.16221625  0.23677254  0.34424340     0.30700
H542        H  0.12006694  0.27200633  0.30146797     0.38300
H543        H  0.37518163  0.23970142  0.18824510     0.30200
H544        H  0.23512154  0.16894495  0.34393093     0.30200
H545        H  0.23562655  0.15265007  0.17213370     0.30500
C546        C  0.12753139  0.00488660  0.25426833    -0.03000
Zr547      Zr  0.94416825  0.03895670  0.53802984     2.17500
O548        O  0.89260136  0.06699928  0.56926173    -0.51900
O549        O  0.95990763  0.09853540  0.54905688    -0.75100
O550        O  0.93499726  0.02235759  0.59869590    -0.81800
O551        O  0.90738318  0.06427190  0.45263369    -0.83600
O552        O  0.98110089  0.98678559  0.61721579    -0.79200
O553        O  0.88778172  0.04307464  0.50446479    -0.90800
O554        O  0.01898159  0.10864747  0.52995476    -0.76800
O555        O  0.00843055  0.03635465  0.55286661    -0.86300
O556        O  0.97685719  0.06225531  0.48850944    -0.86000
O557        O  0.95606182  0.97922876  0.54930620    -0.72700
O558        O  0.92761253  0.00435317  0.48940260    -0.84900
Zr559      Zr  0.03984689  0.96448084  0.46570589     2.26400
Zr560      Zr  0.02100208  0.97686848  0.56406958     2.06300
Zr561      Zr  0.96182678  0.02675188  0.44020201     2.10000
Zr562      Zr  0.04121159  0.05799189  0.50251213     1.78800
O563        O  0.91576588  0.99865957  0.40443621    -0.93700
O564        O  0.08848726  0.07216254  0.54508113    -0.41500
O565        O  0.02728552  0.02357508  0.45358212    -0.78100
O566        O  0.05530882  0.99967117  0.51431616    -0.96800
O567        O  0.00648383  0.94164343  0.51500913    -0.90100
O568        O  0.97566076  0.96727364  0.45008678    -0.93000
C569        C  0.98845472  0.11798852  0.54473779     1.00800
C570        C  0.88316161  0.06223793  0.47777697     1.13700
C571        C  0.95083111  0.00453666  0.62265749     1.04500
O572        O  0.06236364  0.00341783  0.60559858    -0.95100
O573        O  0.08138780  0.94651763  0.55658935    -0.90900
O574        O  0.09187825  0.94124753  0.49807105    -0.84000
C575        C  0.10133174  0.93722477  0.52993188     1.11100
O576        O  0.87845064  0.94443415  0.52314042    -0.97100
Zr577      Zr  0.94221214  0.94550499  0.49970911     1.88900
O578        O  0.02246707  0.90709352  0.45035328    -0.73700
O579        O  0.01697717  0.92331309  0.59694172    -0.53000
O580        O  0.93180937  0.89954164  0.54203548    -0.97700
O581        O  0.89830480  0.93223901  0.45376058    -0.54900
O582        O  0.96648194  0.89368548  0.47521429    -0.74300
C583        C  0.99574716  0.88638353  0.45723712     0.98100
O584        O  0.10022840  0.94811534  0.43982242    -0.63100
O585        O  0.96323538  0.07476747  0.39919069    -0.57900
O586        O  0.04731971  0.98002212  0.40398298    -0.94600
O587        O  0.00232406  0.01843178  0.38853444    -0.93000
O588        O  0.04552584  0.10227929  0.45748968    -0.93300
O589        O  0.10425323  0.06230477  0.47788072    -0.92100
C590        C  0.03158064  0.00004512  0.38175324     1.16900
H591        H  0.96951667  0.08560558  0.48351009     0.32900
H592        H  0.08184428  0.99963110  0.51840686     0.43700
H593        H  0.97130685  0.95416428  0.42936606     0.37300
H594        H  0.94028016  0.96966591  0.56750249     0.33700
H595        H  0.07424102  0.08057230  0.56565122     0.25500
H596        H  0.02236365  0.90527006  0.57961891     0.31500
H597        H  0.95721756  0.89182955  0.54860729     0.37400
H598        H  0.03464895  0.09188184  0.43655343     0.31800
H599        H  0.93838249  0.07477080  0.38813378     0.30700
H600        H  0.89202223  0.00052547  0.41797995     0.32400
H601        H  0.88536143  0.91130642  0.46209069     0.31400
H602        H  0.10817879  0.04056430  0.46528694     0.35400
H603        H  0.09461098  0.93382657  0.41941245     0.28100
H604        H  0.88491078  0.08674821  0.55458771     0.32300
H605        H  0.86622527  0.96503237  0.51311451     0.35200
H606        H  0.96305687  0.09541414  0.41391399     0.27800
H607        H  0.11127269  0.96938977  0.43004143     0.40700
H608        H  0.04971609  0.02512811  0.61200982     0.30700
H609        H  0.09890285  0.04986230  0.55282468     0.38300
H610        H  0.91385188  0.92441447  0.43376356     0.30200
H611        H  0.03911442  0.92322048  0.61215296     0.30200
H612        H  0.87126138  0.05097938  0.56875882     0.30500
C613        C  0.23904774  0.15534748  0.00292416    -0.03000
Zr614      Zr  0.44992666  0.04496459  0.96353074     2.17500
O615        O  0.43593604  0.09417155  0.92627454    -0.51900
O616        O  0.38554857  0.05934895  0.97612648    -0.75100
O617        O  0.43479641  0.02490844  0.90585721    -0.81800
O618        O  0.50564710  0.11416798  0.01524424    -0.83600
O619        O  0.44153499  0.96729133  0.90375734    -0.79200
O620        O  0.47531671  0.10134071  0.96587740    -0.90800
O621        O  0.36615625  0.03386440  0.02626912    -0.76800
O622        O  0.42325287  0.99166433  0.97995774    -0.86300
O623        O  0.44252555  0.04952893  0.02506892    -0.86000
O624        O  0.49423890  0.00310005  0.94270427    -0.72700
O625        O  0.51059705  0.05513242  0.98584665    -0.84900
Zr626      Zr  0.52110282  0.96246582  0.04468948     2.26400
Zr627      Zr  0.46805078  0.94895468  0.96099279     2.06300
Zr628      Zr  0.50401970  0.05852673  0.04771917     2.10000
Zr629      Zr  0.41672636  0.99554664  0.04177030     1.78800
O630        O  0.55433652  0.09598640  0.06544856    -0.93700
O631        O  0.36450222  0.95912872  0.02650178    -0.41500
O632        O  0.47766338  0.00458874  0.06537950    -0.78100
O633        O  0.45976022  0.95183284  0.02329528    -0.96800
O634        O  0.52900043  0.95943230  0.98322395    -0.90100
O635        O  0.54811488  0.01592473  0.02860595    -0.93000
C636        C  0.36131635  0.05431562  0.00043901     1.00800
C637        C  0.49361742  0.12204832  0.98455584     1.13700
C638        C  0.43254136  0.99649937  0.88968414     1.04500
O639        O  0.41270123  0.91416199  0.95286420    -0.95100
O640        O  0.48439651  0.89187127  0.98819557    -0.90900
O641        O  0.52053917  0.90235393  0.03502399    -0.84000
C642        C  0.50448609  0.88190279  0.01449527     1.11100
O643        O  0.56296334  0.05416298  0.91881921    -0.97100
Zr644      Zr  0.55429456  0.01351146  0.96677326     1.88900
O645        O  0.58467560  0.94552434  0.03091340    -0.73700
O646        O  0.50435151  0.91833519  0.91687872    -0.53000
O647        O  0.57962858  0.98870707  0.91336732    -0.97700
O648        O  0.60317071  0.05444801  0.97982287    -0.54900
O649        O  0.60417364  0.97614041  0.98370968    -0.74300
C650        C  0.60884809  0.95309966  0.00706726     0.98100
O651        O  0.50811113  0.92824748  0.09722371    -0.63100
O652        O  0.46150231  0.08771150  0.08801971    -0.57900
O653        O  0.55038578  0.98238613  0.09618472    -0.94600
O654        O  0.53283570  0.03810543  0.10253197    -0.93000
O655        O  0.39905271  0.02218093  0.09679680    -0.93300
O656        O  0.40087393  0.95427780  0.08763842    -0.92100
C657        C  0.54856341  0.01015912  0.11336270     1.16900
H658        H  0.42655746  0.06856605  0.03144685     0.32900
H659        H  0.45055331  0.93031153  0.03244289     0.43700
H660        H  0.57211742  0.01891818  0.03933480     0.37300
H661        H  0.49806468  0.00419524  0.91776755     0.33700
H662        H  0.35558879  0.96825011  0.00390367     0.25500
H663        H  0.48567973  0.90489638  0.90415599     0.31500
H664        H  0.57903589  0.96368247  0.91757997     0.37400
H665        H  0.37136239  0.02130417  0.09767132     0.31800
H666        H  0.45617148  0.07050371  0.10654248     0.30700
H667        H  0.54447546  0.10793801  0.08631807     0.32400
H668        H  0.61820143  0.04348609  0.99835508     0.31400
H669        H  0.42211499  0.95504113  0.10386238     0.35400
H670        H  0.49648048  0.94434756  0.11402535     0.28100
H671        H  0.40974281  0.09158543  0.91887721     0.32300
H672        H  0.53737267  0.06226740  0.91336778     0.35200
H673        H  0.47708480  0.10498059  0.09950734     0.27800
H674        H  0.48723989  0.91294359  0.09126326     0.40700
H675        H  0.41992921  0.89805122  0.93415011     0.30700
H676        H  0.37619396  0.93683418  0.02064922     0.38300
H677        H  0.58982947  0.07348966  0.99160057     0.30200
H678        H  0.51250746  0.93625180  0.90001692     0.30200
H679        H  0.45169127  0.09150714  0.90500645     0.30500
Zr680      Zr  0.53482327  0.04869084  0.45617800     2.17500
O681        O  0.58623761  0.07642377  0.42409934    -0.51900
O682        O  0.50947206  0.10514558  0.44068526    -0.75100
O683        O  0.54173180  0.03263216  0.39519975    -0.81800
O684        O  0.58741325  0.06523650  0.54024611    -0.83600
O685        O  0.49933105  0.99179096  0.38244841    -0.79200
O686        O  0.59113504  0.06900662  0.48128390    -0.90800
O687        O  0.45665008  0.11704671  0.47186832    -0.76800
O688        O  0.46996275  0.04331071  0.44575674    -0.86300
O689        O  0.50577814  0.06994179  0.50813465    -0.86000
O690        O  0.52739910  0.98815247  0.44774275    -0.72700
O691        O  0.55760838  0.01409562  0.50410407    -0.84900
Zr692      Zr  0.45124390  0.97016960  0.53552101     2.26400
Zr693      Zr  0.46153550  0.98300437  0.43687059     2.06300
Zr694      Zr  0.52736739  0.03518364  0.55611747     2.10000
Zr695      Zr  0.44056598  0.06346480  0.49824506     1.78800
O696        O  0.57252619  0.01286048  0.59756336    -0.93700
O697        O  0.39210482  0.07613040  0.45589982    -0.41500
O698        O  0.46162775  0.02954779  0.54616324    -0.78100
O699        O  0.42919110  0.00460834  0.48792675    -0.96800
O700        O  0.48185654  0.94806583  0.48507242    -0.90100
O701        O  0.51618898  0.97526397  0.54750096    -0.93000
C702        C  0.48249317  0.12503389  0.45013489     1.00800
C703        C  0.60457102  0.07404752  0.51138040     1.13700
C704        C  0.52731542  0.01131548  0.37424848     1.04500
O705        O  0.41871279  0.00756547  0.39451644    -0.95100
O706        O  0.40314975  0.95111075  0.44833594    -0.90900
O707        O  0.40077182  0.94159391  0.50698534    -0.84000
C708        C  0.38779645  0.93860187  0.47631310     1.11100
O709        O  0.61000139  0.95468291  0.47190372    -0.97100
Zr710      Zr  0.54662860  0.95410823  0.49639868     1.88900
O711        O  0.47019675  0.91208450  0.54958808    -0.73700
O712        O  0.46307015  0.92742123  0.40881755    -0.53000
O713        O  0.55332764  0.91165787  0.45064244    -0.97700
O714        O  0.59479901  0.93790807  0.53791545    -0.54900
O715        O  0.52571947  0.90078189  0.52281249    -0.74300
C716        C  0.49740756  0.89191195  0.54163009     0.98100
O717        O  0.39478145  0.96346625  0.57168584    -0.63100
O718        O  0.52353826  0.08986917  0.58589103    -0.57900
O719        O  0.44754587  0.98177321  0.59697385    -0.94600
O720        O  0.49035957  0.02166381  0.61129055    -0.93000
O721        O  0.43133518  0.10824096  0.54119415    -0.93300
O722        O  0.37967360  0.05917927  0.52732590    -0.92100
C723        C  0.46305061  0.00094906  0.61931107     1.16900
H724        H  0.51220740  0.09359132  0.51181107     0.32900
H725        H  0.40240676  0.00292565  0.48579470     0.43700
H726        H  0.52262809  0.96205218  0.56798806     0.37300
H727        H  0.54291670  0.97943241  0.42905634     0.33700
H728        H  0.40573024  0.07989218  0.43352580     0.25500
H729        H  0.45431015  0.93200476  0.38485147     0.31500
H730        H  0.57034974  0.89402615  0.46038938     0.37400
H731        H  0.45235198  0.10522200  0.55745947     0.31800
H732        H  0.50199867  0.08778416  0.60231367     0.30700
H733        H  0.58822872  0.99675958  0.58386601     0.32400
H734        H  0.60428132  0.91545030  0.52978337     0.31400
H735        H  0.38371874  0.04312269  0.54707577     0.35400
H736        H  0.37434342  0.97491597  0.55877705     0.28100
H737        H  0.57482687  0.08899227  0.40433592     0.32300
H738        H  0.60766190  0.96588119  0.44876222     0.35200
H739        H  0.54574200  0.09002541  0.60100220     0.27800
H740        H  0.38865481  0.93878812  0.57166563     0.40700
H741        H  0.40398560  0.98793807  0.38632625     0.30700
H742        H  0.37893986  0.05420231  0.45278039     0.38300
H743        H  0.58119020  0.93248501  0.55993949     0.30200
H744        H  0.49003451  0.92198383  0.40592935     0.30200
H745        H  0.60156350  0.05801952  0.41331897     0.30500
C746        C  0.48017377  0.25942792  0.38244307    -0.03000
Zr747      Zr  0.95885483  0.45328891  0.04285249     2.17500
O748        O  0.95153987  0.40935203  0.08825457    -0.51900
O749        O  0.89356552  0.44171883  0.03356662    -0.75100
O750        O  0.94124264  0.47515471  0.10044271    -0.81800
O751        O  0.00782117  0.38453509  0.98468022    -0.83600
O752        O  0.94882310  0.53273415  0.09925375    -0.79200
O753        O  0.97664833  0.39415362  0.03603452    -0.90800
O754        O  0.87319070  0.46896364  0.98538283    -0.76800
O755        O  0.93273131  0.50702268  0.02613295    -0.86300
O756        O  0.95201449  0.44907972  0.98104793    -0.86000
O757        O  0.00350013  0.49454596  0.06133590    -0.72700
O758        O  0.01925748  0.44181678  0.01752061    -0.84900
Zr759      Zr  0.03341744  0.53413391  0.95800033     2.26400
Zr760      Zr  0.97818101  0.54900034  0.04240711     2.06300
Zr761      Zr  0.01344460  0.44016671  0.95515342     2.10000
Zr762      Zr  0.92635363  0.50296190  0.96457790     1.78800
O763        O  0.06519078  0.40141537  0.94169541    -0.93700
O764        O  0.87721566  0.54463109  0.97784652    -0.41500
O765        O  0.98768671  0.49423099  0.93875847    -0.78100
O766        O  0.97117725  0.54519872  0.98040987    -0.96800
O767        O  0.03953226  0.53693192  0.01948208    -0.90100
O768        O  0.05872315  0.48022772  0.97409253    -0.93000
C769        C  0.86809102  0.44869499  0.01161122     1.00800
C770        C  0.99354309  0.37474588  0.01411177     1.13700
C771        C  0.93881606  0.50462047  0.11483956     1.04500
O772        O  0.92449809  0.58676548  0.05145645    -0.95100
O773        O  0.99089022  0.60528632  0.01267513    -0.90900
O774        O  0.03190125  0.59424235  0.96825159    -0.84000
C775        C  0.01146523  0.61475277  0.98613320     1.11100
O776        O  0.07380764  0.43840467  0.08045587    -0.97100
Zr777      Zr  0.06357744  0.48221142  0.03598211     1.88900
O778        O  0.09620305  0.55149698  0.97465317    -0.73700
O779        O  0.01390032  0.57980067  0.08542145    -0.53000
O780        O  0.08254122  0.50506615  0.09173479    -0.97700
O781        O  0.11437012  0.44267145  0.02132088    -0.54900
O782        O  0.11434296  0.51964841  0.02150283    -0.74300
C783        C  0.11937869  0.54330346  0.99877427     0.98100
O784        O  0.01948776  0.56658729  0.90499244    -0.63100
O785        O  0.97311125  0.41180891  0.91396533    -0.57900
O786        O  0.06529438  0.51348066  0.90577985    -0.94600
O787        O  0.04474454  0.45902709  0.89905897    -0.93000
O788        O  0.90708643  0.47249922  0.91288073    -0.93300
O789        O  0.91076272  0.54170643  0.91672662    -0.92100
C790        C  0.06245083  0.48605409  0.88793895     1.16900
H791        H  0.93567926  0.43048756  0.97515266     0.32900
H792        H  0.96194542  0.56652407  0.97087405     0.43700
H793        H  0.08282906  0.47634569  0.96301488     0.37300
H794        H  0.00653990  0.49389610  0.08628621     0.33700
H795        H  0.86607290  0.53681617  0.00032624     0.25500
H796        H  0.01873418  0.56276220  0.10413209     0.31500
H797        H  0.08121599  0.53020816  0.08858351     0.37400
H798        H  0.92868940  0.47420241  0.89646971     0.31800
H799        H  0.98098557  0.42089440  0.89082114     0.30700
H800        H  0.05843648  0.39084932  0.91933768     0.32400
H801        H  0.13005509  0.45477598  0.00369048     0.31400
H802        H  0.93522766  0.54829527  0.90633529     0.35400
H803        H  0.01264602  0.54953384  0.88733868     0.28100
H804        H  0.92656000  0.41292350  0.09921328     0.32300
H805        H  0.04908081  0.43562484  0.09213391     0.35200
H806        H  0.98178420  0.38769593  0.91402975     0.27800
H807        H  0.99529405  0.57797232  0.91041767     0.40700
H808        H  0.90315246  0.57122443  0.05595335     0.30700
H809        H  0.89071016  0.56580480  0.98366695     0.38300
H810        H  0.10223742  0.42417511  0.00825922     0.30200
H811        H  0.03866743  0.58359557  0.07415321     0.30200
H812        H  0.96970830  0.41501908  0.10651292     0.30500
Zr813      Zr  0.44829726  0.54508937  0.02658217     2.17500
O814        O  0.39363937  0.56977125  0.05629687    -0.51900
O815        O  0.46247633  0.60523256  0.03823370    -0.75100
O816        O  0.44243681  0.52773769  0.08722323    -0.81800
O817        O  0.41009619  0.57118942  0.94051290    -0.83600
O818        O  0.48809560  0.49056426  0.10363437    -0.79200
O819        O  0.39374223  0.54532379  0.99082154    -0.90800
O820        O  0.52270516  0.61330041  0.02154268    -0.76800
O821        O  0.51213764  0.53908999  0.04166931    -0.86300
O822        O  0.48138629  0.56906272  0.97755937    -0.86000
O823        O  0.45755774  0.48451822  0.03543023    -0.72700
O824        O  0.43111306  0.51264751  0.97659060    -0.84900
Zr825      Zr  0.53827699  0.46976121  0.95112026     2.26400
Zr826      Zr  0.52257834  0.47879861  0.04909131     2.06300
Zr827      Zr  0.46507121  0.53574912  0.92752733     2.10000
Zr828      Zr  0.54531762  0.56229676  0.99272468     1.78800
O829        O  0.42175992  0.51005417  0.88720069    -0.93700
O830        O  0.59048171  0.57425930  0.03787239    -0.41500
O831        O  0.52918280  0.52987313  0.94285216    -0.78100
O832        O  0.55781660  0.50237828  0.00057722    -0.96800
O833        O  0.50486318  0.44611937  0.99943888    -0.90100
O834        O  0.47466000  0.47523084  0.93515233    -0.93000
C835        C  0.49185642  0.62395239  0.03512457     1.00800
C836        C  0.38763784  0.56698109  0.96651870     1.13700
C837        C  0.45862407  0.50872806  0.10995246     1.04500
O838        O  0.56937461  0.50114147  0.08808150    -0.95100
O839        O  0.57644462  0.44070183  0.04080142    -0.90900
O840        O  0.58750547  0.44241699  0.98251079    -0.84000
C841        C  0.59517416  0.43233033  0.01328353     1.11100
O842        O  0.37590348  0.45650033  0.00428315    -0.97100
Zr843      Zr  0.44098518  0.45295275  0.98461514     1.88900
O844        O  0.51964187  0.41139819  0.93719068    -0.73700
O845        O  0.51313774  0.42456709  0.07977360    -0.53000
O846        O  0.42100068  0.40955988  0.02684197    -0.97700
O847        O  0.40236791  0.44123496  0.93434467    -0.54900
O848        O  0.46445749  0.39888611  0.96360940    -0.74300
C849        C  0.49345271  0.39036051  0.94565321     0.98100
O850        O  0.59011474  0.45660551  0.91096126    -0.63100
O851        O  0.46664578  0.58650111  0.89004440    -0.57900
O852        O  0.55143437  0.49188053  0.89326250    -0.94600
O853        O  0.50831215  0.53154576  0.87716434    -0.93000
O854        O  0.55684413  0.60798302  0.95028142    -0.93300
O855        O  0.60891978  0.56331126  0.96899888    -0.92100
C856        C  0.53836718  0.51390335  0.87163333     1.16900
H857        H  0.47471640  0.59272829  0.97339393     0.32900
H858        H  0.58435548  0.50027502  0.00449793     0.43700
H859        H  0.46983852  0.46277538  0.91409428     0.37300
H860        H  0.44187267  0.47538003  0.05393925     0.33700
H861        H  0.57540839  0.57605804  0.05966903     0.25500
H862        H  0.52284645  0.42827929  0.10345179     0.31500
H863        H  0.44431912  0.39744768  0.03339297     0.37400
H864        H  0.53221826  0.61922304  0.94701500     0.31800
H865        H  0.44480871  0.58418328  0.87468808     0.30700
H866        H  0.39700229  0.51190015  0.89901832     0.32400
H867        H  0.38135633  0.45783205  0.93575984     0.31400
H868        H  0.60861806  0.54703451  0.94941423     0.35400
H869        H  0.61348904  0.45580835  0.92444986     0.28100
H870        H  0.40304333  0.58158398  0.07708126     0.32300
H871        H  0.37532290  0.47548207  0.02117308     0.35200
H872        H  0.46020771  0.60593124  0.90540750     0.27800
H873        H  0.58623198  0.43304514  0.90271017     0.40700
H874        H  0.57930255  0.48074144  0.10044846     0.30700
H875        H  0.60490149  0.55271658  0.04069087     0.38300
H876        H  0.39085443  0.41876565  0.93963731     0.30200
H877        H  0.48567552  0.42282422  0.08310673     0.30200
H878        H  0.37898915  0.55018987  0.06561154     0.30500
Zr879      Zr  0.04570992  0.46240532  0.54321322     2.17500
O880        O  0.06906252  0.42768673  0.59165775    -0.51900
O881        O  0.10496510  0.44016570  0.52065228    -0.75100
O882        O  0.02284040  0.40472329  0.54177119    -0.81800
O883        O  0.06500286  0.54080697  0.59846362    -0.83600
O884        O  0.98483996  0.39433192  0.49629056    -0.79200
O885        O  0.06386544  0.48277607  0.60035081    -0.90800
O886        O  0.11892493  0.46144723  0.46728765    -0.76800
O887        O  0.04413717  0.45585255  0.48171004    -0.86300
O888        O  0.07574420  0.51246904  0.52103109    -0.86000
O889        O  0.98016397  0.45726296  0.52961954    -0.72700
O890        O  0.00946497  0.50943007  0.56522917    -0.84900
Zr891      Zr  0.97109037  0.54711257  0.46501265     2.26400
Zr892      Zr  0.97906417  0.45092251  0.46701056     2.06300
Zr893      Zr  0.03818520  0.55995302  0.54133501     2.10000
Zr894      Zr  0.07302660  0.50649332  0.45931085     1.78800
O895        O  0.01417827  0.60043513  0.58414433    -0.93700
O896        O  0.08448585  0.48096900  0.40242748    -0.41500
O897        O  0.03591285  0.55372745  0.47919813    -0.78100
O898        O  0.00893464  0.50101782  0.44337975    -0.96800
O899        O  0.94177063  0.49749997  0.48853719    -0.90100
O900        O  0.97336564  0.55474211  0.52680166    -0.93000
C901        C  0.12509649  0.44083723  0.49271477     1.00800
C902        C  0.07034715  0.51169043  0.61442561     1.13700
C903        C  0.00157785  0.38516722  0.52451205     1.04500
O904        O  0.00498018  0.41250346  0.42316428    -0.95100
O905        O  0.94979584  0.46939569  0.41109564    -0.90900
O906        O  0.94169041  0.52724285  0.41248842    -0.84000
C907        C  0.93882833  0.49822836  0.39751652     1.11100
O908        O  0.93762329  0.46988825  0.60256120    -0.97100
Zr909      Zr  0.94498603  0.50503686  0.55011448     1.88900
O910        O  0.90576242  0.56026674  0.47626266    -0.73700
O911        O  0.91718089  0.42537150  0.46503398    -0.53000
O912        O  0.88889539  0.47046612  0.55723725    -0.97700
O913        O  0.93774213  0.54235811  0.60033555    -0.54900
O914        O  0.89264958  0.53965014  0.53057186    -0.74300
C915        C  0.88398752  0.55637489  0.50286821     0.98100
O916        O  0.98255355  0.58459398  0.41458749    -0.63100
O917        O  0.09909207  0.58751250  0.54231919    -0.57900
O918        O  0.97158601  0.60551156  0.48249278    -0.94600
O919        O  0.02804356  0.61363180  0.50595627    -0.93000
O920        O  0.12994195  0.53877020  0.46886164    -0.93300
O921        O  0.08243841  0.54723120  0.41154295    -0.92100
C922        C  0.00002643  0.62414439  0.48748271     1.16900
H923        H  0.10116974  0.51380371  0.52908405     0.32900
H924        H  0.00904782  0.50093161  0.41822381     0.43700
H925        H  0.95932343  0.57441644  0.53482917     0.37300
H926        H  0.96771672  0.43859046  0.54152622     0.33700
H927        H  0.11203770  0.48124080  0.39915648     0.25500
H928        H  0.92155462  0.40227055  0.45537820     0.31500
H929        H  0.87896077  0.46853164  0.53340804     0.37400
H930        H  0.14890518  0.52813550  0.45322386     0.31800
H931        H  0.10117435  0.59995796  0.51976017     0.30700
H932        H  0.02738741  0.62206733  0.57866873     0.32400
H933        H  0.92929663  0.56467864  0.59078008     0.31400
H934        H  0.05726154  0.55069288  0.40164785     0.35400
H935        H  0.00622363  0.59642142  0.41968600     0.28100
H936        H  0.07603241  0.40509301  0.58212006     0.32300
H937        H  0.96295675  0.46048018  0.60686547     0.35200
H938        H  0.09622818  0.60571916  0.55992358     0.27800
H939        H  0.98950015  0.56942381  0.39500201     0.40700
H940        H  0.03004193  0.40608730  0.43184640     0.30700
H941        H  0.07827120  0.45649282  0.40576401     0.38300
H942        H  0.96354763  0.54648742  0.60825474     0.30200
H943        H  0.91014017  0.42121882  0.48978074     0.30200
H944        H  0.04695686  0.42300684  0.60670781     0.30500
C945        C  0.26134721  0.35481039  0.48817070    -0.03000
Zr946      Zr  0.44547888  0.47100411  0.46127496     2.17500
O947        O  0.38932715  0.44527329  0.43763231    -0.51900
O948        O  0.46009863  0.41116259  0.44931160    -0.75100
O949        O  0.43800581  0.48696641  0.40026342    -0.81800
O950        O  0.40927338  0.44188096  0.54497780    -0.83600
O951        O  0.48482086  0.52187299  0.38170643    -0.79200
O952        O  0.39124120  0.47139236  0.49838440    -0.90800
O953        O  0.52073683  0.40114592  0.46298958    -0.76800
O954        O  0.50983314  0.47310533  0.44520524    -0.86300
O955        O  0.47721015  0.44602024  0.51004073    -0.86000
O956        O  0.45711923  0.53066441  0.45044697    -0.72700
O957        O  0.42940127  0.50473635  0.51147962    -0.84900
Zr958      Zr  0.53747327  0.54334300  0.53215673     2.26400
Zr959      Zr  0.52242875  0.53270395  0.43467021     2.06300
Zr960      Zr  0.46212472  0.48025073  0.56023832     2.10000
Zr961      Zr  0.54147005  0.44967494  0.49461373     1.78800
O962        O  0.41640603  0.50619275  0.59975251    -0.93700
O963        O  0.59205472  0.43701615  0.45332638    -0.41500
O964        O  0.52698416  0.48388742  0.54417564    -0.78100
O965        O  0.55505437  0.50820335  0.48359041    -0.96800
O966        O  0.50603558  0.56786510  0.48385454    -0.90100
O967        O  0.47370567  0.54045215  0.55028132    -0.93000
C968        C  0.48958082  0.39226627  0.45017559     1.00800
C969        C  0.38616376  0.44700982  0.51993325     1.13700
C970        C  0.45475229  0.50451067  0.37628023     1.04500
O971        O  0.56461480  0.51118286  0.38939087    -0.95100
O972        O  0.58469826  0.55920768  0.44254918    -0.90900
O973        O  0.58873008  0.56804151  0.50073326    -0.84000
C974        C  0.60209037  0.56963085  0.46974019     1.11100
O975        O  0.37797876  0.56462506  0.47996161    -0.97100
Zr976      Zr  0.44192171  0.56398738  0.50103151     1.88900
O977        O  0.52071930  0.60058877  0.55031271    -0.73700
O978        O  0.51502935  0.58830425  0.40630947    -0.53000
O979        O  0.42840888  0.60880150  0.45841107    -0.97700
O980        O  0.39683130  0.57829215  0.54708261    -0.54900
O981        O  0.46725608  0.61655629  0.52362771    -0.74300
C982        C  0.49571007  0.62280389  0.54234033     0.98100
O983        O  0.59848527  0.55856045  0.55502387    -0.63100
O984        O  0.46166053  0.43180845  0.60074855    -0.57900
O985        O  0.54728385  0.52727004  0.59184917    -0.94600
O986        O  0.50774585  0.48538812  0.60913610    -0.93000
O987        O  0.54256968  0.40147569  0.53538954    -0.93300
O988        O  0.60188289  0.44532392  0.52292383    -0.92100
C989        C  0.53608217  0.50520978  0.61437539     1.16900
H990        H  0.47007106  0.42252981  0.51429520     0.32900
H991        H  0.58178476  0.50800951  0.47975319     0.43700
H992        H  0.46930333  0.55345415  0.57123267     0.37300
H993        H  0.44171741  0.54010202  0.43225569     0.33700
H994        H  0.59935902  0.41304623  0.45858541     0.25500
H995        H  0.52932008  0.60429188  0.42077404     0.31500
H996        H  0.45046153  0.60892308  0.44246742     0.37400
H997        H  0.54114910  0.41201205  0.55873752     0.31800
H998        H  0.43580081  0.43105853  0.61038802     0.30700
H999        H  0.43040271  0.51015285  0.62139232     0.32400
H1000       H  0.41189342  0.58440096  0.56749872     0.31400
H1001       H  0.60381246  0.46665784  0.53644847     0.35400
H1002       H  0.59368191  0.57411664  0.57482056     0.28100
H1003       H  0.39811545  0.42907422  0.41960096     0.32300
H1004       H  0.36999910  0.54043620  0.48112236     0.35200
H1005       H  0.46386142  0.41138132  0.58579737     0.27800
H1006       H  0.60964696  0.53746678  0.56509488     0.40700
H1007       H  0.55664107  0.48728936  0.38577540     0.30700
H1008       H  0.57982618  0.43593330  0.43038726     0.38300
H1009       H  0.38508504  0.55622437  0.55365000     0.30200
H1010       H  0.52984905  0.58648293  0.38437058     0.30200
H1011       H  0.37615787  0.46375943  0.42480866     0.30500
C1012       C  0.37114603  0.50760422  0.24216178    -0.03000
C1013       C  0.99691776  0.74750858  0.91151740    -0.03000
Zr1014     Zr  0.20380722  0.71579757  0.79357820     2.17500
O1015       O  0.14214918  0.68926595  0.79461777    -0.51900
O1016       O  0.21722195  0.70054607  0.85281641    -0.75100
O1017       O  0.20694271  0.65468253  0.78535125    -0.81800
O1018       O  0.15141224  0.79692562  0.81598153    -0.83600
O1019       O  0.25542182  0.64132445  0.74902538    -0.79200
O1020       O  0.14999866  0.73897232  0.82257510    -0.90800
O1021       O  0.27162488  0.72447150  0.86860135    -0.76800
O1022       O  0.26928457  0.70541636  0.79609504    -0.86300
O1023       O  0.22865094  0.76578223  0.81910806    -0.86000
O1024       O  0.22169260  0.70603612  0.73418085    -0.72700
O1025       O  0.18402694  0.76234404  0.75710203    -0.84900
Zr1026     Zr  0.29570285  0.79346969  0.72481956     2.26400
Zr1027     Zr  0.28804719  0.69632183  0.73662641     2.06300
Zr1028     Zr  0.21000447  0.81250750  0.78253597     2.10000
Zr1029     Zr  0.29453902  0.75652291  0.81962282     1.78800
O1030       O  0.16337878  0.84823503  0.75391032    -0.93700
O1031       O  0.34656342  0.71898783  0.83509224    -0.41500
O1032       O  0.27650187  0.80379398  0.78376403    -0.78100
O1033       O  0.31498982  0.74670976  0.76131073    -0.96800
O1034       O  0.27070461  0.74344021  0.69950194    -0.90100
O1035       O  0.23005933  0.80405085  0.72327366    -0.93000
C1036       C  0.24282409  0.70612106  0.87479401     1.00800
C1037       C  0.13619326  0.76872546  0.82730490     1.13700
C1038       C  0.22601231  0.63314181  0.76731224     1.04500
O1039       O  0.33493945  0.65906551  0.76284866    -0.95100
O1040       O  0.34739117  0.70993289  0.70570818    -0.90900
O1041       O  0.34903094  0.76770918  0.69660656    -0.84000
C1042       C  0.36279285  0.73757782  0.69379863     1.11100
O1043       O  0.14591688  0.72411219  0.69271410    -0.97100
Zr1044     Zr  0.20512709  0.75393324  0.69822627     1.88900
O1045       O  0.28622847  0.80775734  0.66442624    -0.73700
O1046       O  0.28708011  0.66394712  0.68277106    -0.53000
O1047       O  0.20290541  0.71517534  0.64909082    -0.97700
O1048       O  0.15734253  0.79592509  0.68236839    -0.54900
O1049       O  0.23318386  0.78126710  0.64746992    -0.74300
C1050       C  0.26186593  0.80008609  0.64178668     0.98100
O1051       O  0.35352952  0.82464721  0.73514418    -0.63100
O1052       O  0.20797140  0.84811620  0.83427506    -0.57900
O1053       O  0.28879459  0.85466095  0.72611520    -0.94600
O1054       O  0.24794897  0.86491466  0.77105272    -0.93000
O1055       O  0.29272931  0.79516238  0.86905058    -0.93300
O1056       O  0.35250242  0.78851420  0.82448954    -0.92100
C1057       C  0.27355183  0.87440038  0.74866754     1.16900
H1058       H  0.21877604  0.76891992  0.84244628     0.32900
H1059       H  0.34195371  0.74490136  0.76161395     0.43700
H1060       H  0.22461552  0.82406743  0.70921648     0.37300
H1061       H  0.20910918  0.68632614  0.72514229     0.33700
H1062       H  0.35289408  0.72549297  0.85915920     0.25500
H1063       H  0.29625494  0.68001102  0.66446753     0.31500
H1064       H  0.21846957  0.69531783  0.65617401     0.37400
H1065       H  0.26733038  0.80542106  0.86894439     0.31800
H1066       H  0.18580898  0.86309692  0.83108381     0.30700
H1067       H  0.14242312  0.83253154  0.74936232     0.32400
H1068       H  0.14572650  0.78655614  0.66128194     0.31400
H1069       H  0.34549458  0.81255630  0.81925252     0.35400
H1070       H  0.37202448  0.80714323  0.74251174     0.28100
H1071       H  0.14345411  0.67003529  0.81160476     0.32300
H1072       H  0.14219767  0.71208478  0.71532781     0.35200
H1073       H  0.20081530  0.83247560  0.85369730     0.27800
H1074       H  0.34866390  0.83789114  0.75662750     0.40700
H1075       H  0.32470126  0.65350405  0.78635281     0.30700
H1076       H  0.33535661  0.69598857  0.83768093     0.38300
H1077       H  0.17123284  0.81619962  0.67367303     0.30200
H1078       H  0.30745634  0.64683991  0.68525762     0.30200
H1079       H  0.13955812  0.67850654  0.77156164     0.30500
C1080       C  0.50069738  0.75629678  0.61063229    -0.03000
C1081       C  0.39621520  0.74127117  0.63825541    -0.26800
C1082       C  0.39822238  0.73587128  0.67394781    -0.14900
C1083       C  0.43319259  0.73674695  0.69013743     0.35700
C1084       C  0.46588793  0.74262415  0.66977245    -0.26300
C1085       C  0.46444971  0.74921985  0.63335575    -0.15500
C1086       C  0.42795759  0.74758047  0.61781276     0.36800
N1087       N  0.42085956  0.75237130  0.58140975    -0.89800
H1088       H  0.36903801  0.74155368  0.62599040     0.17900
H1089       H  0.49236380  0.74146341  0.68280874     0.17900
N1090       N  0.43517024  0.73303559  0.72737010    -0.88800
H1091       H  0.42876176  0.73080424  0.56743558     0.35300
H1092       H  0.43184554  0.77501690  0.57125655     0.40400
H1093       H  0.42630093  0.70832571  0.73391845     0.40000
H1094       H  0.46285599  0.73496468  0.73551128     0.34900
C1095       C  0.03345999  0.75439784  0.85088546    -0.26800
C1096       C  0.03384554  0.75117265  0.88778338    -0.14900
C1097       C  0.06989100  0.75306038  0.90337713     0.35700
C1098       C  0.10189552  0.76193858  0.88338446    -0.26300
C1099       C  0.10019470  0.76848603  0.84745718    -0.15500
C1100       C  0.06551864  0.76350277  0.83093884     0.36800
N1101       N  0.06177914  0.76667407  0.79376025    -0.89800
H1102       H  0.00857511  0.74920385  0.83648406     0.17900
H1103       H  0.12875139  0.76288487  0.89609852     0.17900
N1104       N  0.07396719  0.74747802  0.94010661    -0.88800
H1105       H  0.05584347  0.74240662  0.78416409     0.35300
H1106       H  0.08660102  0.77469530  0.78161220     0.40400
H1107       H  0.08550202  0.76944172  0.95080559     0.40000
H1108       H  0.09287257  0.72725620  0.94370486     0.34900
C1109       C  0.50993879  0.65966776  0.59182642    -0.26800
C1110       C  0.49959617  0.65731307  0.55708224    -0.14900
C1111       C  0.49286975  0.68748882  0.53767272     0.35700
C1112       C  0.49520417  0.71954729  0.55406541    -0.26300
C1113       C  0.50314868  0.72216102  0.58995647    -0.15500
C1114       C  0.51143021  0.69116705  0.60842088     0.36800
N1115       N  0.52134535  0.69140961  0.64446799    -0.89800
H1116       H  0.51571142  0.63659692  0.60681681     0.17900
H1117       H  0.48762921  0.74195017  0.53906910     0.17900
N1118       N  0.48326219  0.68545925  0.50151647    -0.88800
H1119       H  0.54792780  0.68034937  0.64682597     0.35300
H1120       H  0.50227949  0.67614561  0.65843873     0.40400
H1121       H  0.50629165  0.67501999  0.48813706     0.40000
H1122       H  0.47889109  0.70990050  0.49094345     0.34900
C1123       C  0.39132715  0.47997845  0.30121083    -0.26800
C1124       C  0.39472290  0.50716290  0.27678116    -0.14900
C1125       C  0.41870372  0.53446384  0.28632569     0.35700
C1126       C  0.43924793  0.53294134  0.31782845    -0.26300
C1127       C  0.43645484  0.50478784  0.34097493    -0.15500
C1128       C  0.41256062  0.47783681  0.33156242     0.36800
N1129       N  0.40965881  0.44749400  0.35268242    -0.89800
H1130       H  0.37172685  0.45952636  0.29759494     0.17900
H1131       H  0.45669297  0.55436467  0.32456288     0.17900
N1132       N  0.42196181  0.56416537  0.26433795    -0.88800
H1133       H  0.41770861  0.42660184  0.33743204     0.35300
H1134       H  0.38152735  0.44433663  0.35987759     0.40400
H1135       H  0.45018255  0.56721723  0.25745332     0.40000
H1136       H  0.41354182  0.58545245  0.27882685     0.34900
C1137       C  0.29081532  0.41567013  0.49224753    -0.26800
C1138       C  0.29593342  0.37979760  0.48942002    -0.14900
C1139       C  0.33271448  0.36696703  0.49654446     0.35700
C1140       C  0.36099538  0.38888357  0.50828225    -0.26300
C1141       C  0.35438657  0.42389869  0.51277833    -0.15500
C1142       C  0.31898658  0.43730994  0.50372965     0.36800
N1143       N  0.30991415  0.47286593  0.50766687    -0.89800
H1144       H  0.26388340  0.42759909  0.48899089     0.17900
H1145       H  0.38858552  0.37843383  0.51334521     0.17900
N1146       N  0.34118442  0.33123759  0.49341867    -0.88800
H1147       H  0.32619188  0.48732907  0.49022722     0.35300
H1148       H  0.31581161  0.48003797  0.53316540     0.40400
H1149       H  0.35005594  0.32210059  0.51765959     0.40000
H1150       H  0.36352549  0.32858525  0.47570172     0.34900
C1151       C  0.18197354  0.41809902  0.46066687    -0.26800
C1152       C  0.15711153  0.41610589  0.48958279    -0.14900
C1153       C  0.16287077  0.38932504  0.51416559     0.35700
C1154       C  0.19430955  0.36844298  0.51134083    -0.26300
C1155       C  0.22281394  0.37412134  0.48600676    -0.15500
C1156       C  0.21400131  0.39686636  0.45824948     0.36800
N1157       N  0.23837463  0.39959762  0.42834472    -0.89800
H1158       H  0.17714638  0.43671243  0.44007153     0.17900
H1159       H  0.19631116  0.34791549  0.53032418     0.17900
N1160       N  0.13774359  0.38226264  0.54274127    -0.88800
H1161       H  0.24706716  0.42500266  0.42583833     0.35300
H1162       H  0.22291005  0.39372209  0.40631839     0.40400
H1163       H  0.11096618  0.37794115  0.53319116     0.40000
H1164       H  0.13778923  0.40291276  0.55978748     0.34900
C1165       C  0.39998493  0.50607800  0.14404286    -0.26800
C1166       C  0.43906586  0.50647518  0.14431550    -0.14900
C1167       C  0.45720317  0.50635741  0.17655961     0.35700
C1168       C  0.43583823  0.50721664  0.20792666    -0.26300
C1169       C  0.39607258  0.50822881  0.20792270    -0.15500
C1170       C  0.37859805  0.50667281  0.17471573     0.36800
N1171       N  0.33862779  0.50663380  0.17176698    -0.89800
H1172       H  0.38549515  0.50545181  0.11942966     0.17900
H1173       H  0.45089792  0.50613531  0.23206725     0.17900
N1174       N  0.49722112  0.50597520  0.17763594    -0.88800
H1175       H  0.33065146  0.52760041  0.15635028     0.35300
H1176       H  0.33097520  0.48438571  0.15885386     0.40400
H1177       H  0.50550093  0.48440276  0.19198378     0.40000
H1178       H  0.50572054  0.52767084  0.19101909     0.34900
C1179       C  0.01491714  0.65266631  0.93438231    -0.26800
C1180       C  0.00962656  0.65020677  0.97072674    -0.14900
C1181       C  0.00315763  0.68085457  0.98913408     0.35700
C1182       C  0.00141448  0.71246085  0.97071731    -0.26300
C1183       C  0.00341217  0.71420359  0.93362578    -0.15500
C1184       C  0.01131102  0.68328021  0.91594129     0.36800
N1185       N  0.01391931  0.68236188  0.87860718    -0.89800
H1186       H  0.02081757  0.63020440  0.91915599     0.17900
H1187       H  0.99807129  0.73535265  0.98589863     0.17900
N1188       N  0.99912192  0.68088483  0.02630937    -0.88800
H1189       H  0.04029385  0.67266015  0.87157987     0.35300
H1190       H  0.99367079  0.66555925  0.86960354     0.40400
H1191       H  0.02289459  0.66933768  0.03693891     0.40000
H1192       H  0.97576917  0.66623346  0.03328220     0.34900
C1193       C  0.51552341  0.31479350  0.39759934    -0.26800
C1194       C  0.48513888  0.29240749  0.40422787    -0.14900
C1195       C  0.45619628  0.30399842  0.42729142     0.35700
C1196       C  0.45796115  0.33660810  0.44207379    -0.26300
C1197       C  0.48825195  0.35810469  0.43486569    -0.15500
C1198       C  0.51737891  0.34692523  0.41279024     0.36800
N1199       N  0.54811841  0.36900145  0.40410919    -0.89800
H1200       H  0.53714010  0.30913862  0.37855127     0.17900
H1201       H  0.43551714  0.34514154  0.45930410     0.17900
N1202       N  0.42451190  0.28294363  0.43533693    -0.88800
H1203       H  0.54874114  0.37282501  0.37708407     0.35300
H1204       H  0.57290122  0.35650258  0.41109980     0.40400
H1205       H  0.42293608  0.27938037  0.46236306     0.40000
H1206       H  0.40043378  0.29621101  0.42775040     0.34900
C1207       C  0.47564101  0.85100193  0.58716110    -0.26800
C1208       C  0.49639188  0.85664140  0.55649943    -0.14900
C1209       C  0.51734791  0.82926732  0.54244024     0.35700
C1210       C  0.51754026  0.79726107  0.55955330    -0.26300
C1211       C  0.49596274  0.79078676  0.59012570    -0.15500
C1212       C  0.47619417  0.81945420  0.60466753     0.36800
N1213       N  0.45771533  0.81774611  0.63807299    -0.89800
H1214       H  0.46025629  0.87195863  0.59907105     0.17900
H1215       H  0.53539468  0.77759326  0.54874649     0.17900
N1216       N  0.53859670  0.83367874  0.51075006    -0.88800
H1217       H  0.46916070  0.83634276  0.65407377     0.35300
H1218       H  0.42942018  0.82374812  0.63475121     0.40400
H1219       H  0.56662186  0.82802285  0.51592129     0.40000
H1220       H  0.52914113  0.81593839  0.49274066     0.34900
C1221       C  0.48820141  0.18792726  0.45414763    -0.26800
C1222       C  0.48020513  0.15916913  0.43430625    -0.14900
C1223       C  0.46873948  0.16332952  0.39978002     0.35700
C1224       C  0.46735884  0.19592467  0.38509187    -0.26300
C1225       C  0.47574422  0.22572188  0.40419309    -0.15500
C1226       C  0.48672212  0.22104889  0.43953775     0.36800
N1227       N  0.49878595  0.24896616  0.46031306    -0.89800
H1228       H  0.49684535  0.18457185  0.48093654     0.17900
H1229       H  0.46019100  0.19796863  0.35784978     0.17900
N1230       N  0.45804569  0.13482884  0.37905588    -0.88800
H1231       H  0.52631661  0.24412270  0.46788944     0.35300
H1232       H  0.48199348  0.24971081  0.48286808     0.40400
H1233       H  0.43580488  0.12237380  0.39173840     0.40000
H1234       H  0.48066877  0.11781899  0.37724629     0.34900
C1235       C  0.28881858  0.11808705  0.97037475    -0.26800
C1236       C  0.27185665  0.12845088  0.00229680    -0.14900
C1237       C  0.28019206  0.10823092  0.03236954     0.35700
C1238       C  0.30828350  0.08312750  0.03097331    -0.26300
C1239       C  0.32722228  0.07580136  0.99971566    -0.15500
C1240       C  0.31571408  0.09203099  0.96872991     0.36800
N1241       N  0.33090891  0.08160073  0.93549647    -0.89800
H1242       H  0.27972917  0.12846803  0.94576838     0.17900
H1243       H  0.31585143  0.06991523  0.05484916     0.17900
N1244       N  0.26037702  0.11322335  0.06464514    -0.88800
H1245       H  0.31974398  0.09623480  0.91513884     0.35300
H1246       H  0.32263967  0.05635137  0.93150698     0.40400
H1247       H  0.27968188  0.11860055  0.08398468     0.40000
H1248       H  0.24721763  0.09024887  0.07151191     0.34900
C1249       C  0.05525498  0.97381138  0.32609434    -0.26800
C1250       C  0.04999426  0.00295913  0.34664521    -0.14900
C1251       C  0.06574061  0.03400453  0.33500018     0.35700
C1252       C  0.08884075  0.03466701  0.30478547    -0.26300
C1253       C  0.09788146  0.00469380  0.28560244    -0.15500
C1254       C  0.07755511  0.97466091  0.29533310     0.36800
N1255       N  0.08048262  0.94438007  0.27474066    -0.89800
H1256       H  0.04235178  0.94995152  0.33424043     0.17900
H1257       H  0.09938526  0.05926582  0.29653451     0.17900
N1258       N  0.05971822  0.06459503  0.35487607    -0.88800
H1259       H  0.05366222  0.93819780  0.26643478     0.35300
H1260       H  0.08993974  0.92431622  0.29063347     0.40400
H1261       H  0.03137969  0.07111622  0.35318854     0.40000
H1262       H  0.07463450  0.08506361  0.34389092     0.34900
C1263       C  0.30948025  0.47216180  0.23485173    -0.26800
C1264       C  0.34890931  0.47314843  0.23817589    -0.14900
C1265       C  0.36866710  0.44148208  0.23370799     0.35700
C1266       C  0.34940772  0.41104072  0.22753307    -0.26300
C1267       C  0.31049983  0.41049760  0.22483633    -0.15500
C1268       C  0.29026077  0.44151638  0.22847042     0.36800
N1269       N  0.25018484  0.44303037  0.22583990    -0.89800
H1270       H  0.29296044  0.49533820  0.23596261     0.17900
H1271       H  0.36513012  0.38727981  0.22564604     0.17900
N1272       N  0.40866505  0.43991596  0.23592104    -0.88800
H1273       H  0.23931473  0.45000019  0.25023031     0.35300
H1274       H  0.23893461  0.41922293  0.22005512     0.40400
H1275       H  0.41935995  0.43042298  0.21237891     0.40000
H1276       H  0.41567704  0.42255945  0.25573837     0.34900
C1277       C  0.23160015  0.28523649  0.42130383    -0.26800
C1278       C  0.25952811  0.28802440  0.39559536    -0.14900
C1279       C  0.29032401  0.30964174  0.40194373     0.35700
C1280       C  0.29052494  0.33076075  0.43117502    -0.26300
C1281       C  0.26195694  0.32950078  0.45673817    -0.15500
C1282       C  0.23264207  0.30525139  0.45171621     0.36800
N1283       N  0.20305370  0.30141639  0.47702021    -0.89800
H1284       H  0.20755456  0.26920914  0.41683922     0.17900
H1285       H  0.31300897  0.34894935  0.43270831     0.17900
N1286       N  0.32093227  0.31168688  0.37744723    -0.88800
H1287       H  0.20260696  0.27587336  0.48538327     0.35300
H1288       H  0.17768357  0.30680816  0.46482774     0.40400
H1289       H  0.34551377  0.30581546  0.39071209     0.40000
H1290       H  0.32289796  0.33694989  0.36838204     0.34900
C1291       C  0.41346337  0.30135281  0.31484568    -0.26800
C1292       C  0.38180062  0.28097802  0.31904197    -0.14900
C1293       C  0.38009240  0.25602737  0.34555135     0.35700
C1294       C  0.41106084  0.25059351  0.36651992    -0.26300
C1295       C  0.44511113  0.26796344  0.36036899    -0.15500
C1296       C  0.44498057  0.29543381  0.33550722     0.36800
N1297       N  0.47728764  0.31645489  0.33009989    -0.89800
H1298       H  0.41430513  0.32094988  0.29464247     0.17900
H1299       H  0.40797816  0.23252127  0.38781569     0.17900
N1300       N  0.34650175  0.23643747  0.35127906    -0.88800
H1301       H  0.48569342  0.31490814  0.30393591     0.35300
H1302       H  0.46947865  0.34181088  0.33494834     0.40400
H1303       H  0.34910370  0.22021605  0.37296356     0.40000
H1304       H  0.34317172  0.22055828  0.32982281     0.34900
C1305       C  0.14338526  0.06249078  0.22152988    -0.26800
C1306       C  0.14710942  0.04124206  0.25125459    -0.14900
C1307       C  0.16839503  0.05508104  0.27892595     0.35700
C1308       C  0.18065020  0.08965749  0.27791390    -0.26300
C1309       C  0.17334309  0.11164683  0.24940671    -0.15500
C1310       C  0.15450892  0.09691235  0.22069458     0.36800
N1311       N  0.14510708  0.11609853  0.19003122    -0.89800
H1312       H  0.13125831  0.05288784  0.19805523     0.17900
H1313       H  0.19595232  0.09930742  0.29984344     0.17900
N1314       N  0.17663927  0.03440592  0.30890540    -0.88800
H1315       H  0.16967934  0.12291328  0.17680864     0.35300
H1316       H  0.12965151  0.13780577  0.19714522     0.40400
H1317       H  0.16560486  0.04658264  0.33095758     0.40000
H1318       H  0.20572214  0.03316091  0.31131338     0.34900
C1319       C  0.27828210  0.21541943  0.07466950    -0.26800
C1320       C  0.24804459  0.23770209  0.07937475    -0.14900
C1321       C  0.21928541  0.23787527  0.05508321     0.35700
C1322       C  0.21740805  0.21136648  0.03110399    -0.26300
C1323       C  0.24459511  0.18472657  0.02965765    -0.15500
C1324       C  0.27806088  0.19050984  0.04867265     0.36800
N1325       N  0.31257111  0.17318337  0.04087706    -0.89800
H1326       H  0.30174625  0.21649745  0.09220008     0.17900
H1327       H  0.19408687  0.21175373  0.01373200     0.17900
N1328       N  0.19196793  0.26485216  0.05409583    -0.88800
H1329       H  0.32238949  0.16179375  0.06379444     0.35300
H1330       H  0.33218265  0.19147259  0.03280862     0.40400
H1331       H  0.20612621  0.28769911  0.04884425     0.40000
H1332       H  0.17951635  0.26718555  0.07868670     0.34900
C1333       C  0.96167316  0.81729327  0.97875740    -0.26800
C1334       C  0.99002911  0.84204503  0.97576005    -0.14900
C1335       C  0.01840604  0.83721424  0.95079464     0.35700
C1336       C  0.01832183  0.80860266  0.92946000    -0.26300
C1337       C  0.99282136  0.78110706  0.93415145    -0.15500
C1338       C  0.96300676  0.78690919  0.95862748     0.36800
N1339       N  0.93331343  0.76268833  0.96238872    -0.89800
H1340       H  0.93799577  0.82186382  0.99612230     0.17900
H1341       H  0.03859522  0.80948410  0.90844362     0.17900
N1342       N  0.04675579  0.86265435  0.94554595    -0.88800
H1343       H  0.90823306  0.77509867  0.95618918     0.35300
H1344       H  0.93156660  0.75501326  0.98855248     0.40400
H1345       H  0.04603007  0.87103959  0.91959386     0.40000
H1346       H  0.07278690  0.85100669  0.94954772     0.34900
C1347       C  0.15569817  0.10018888  0.04012241    -0.26800
C1348       C  0.15196124  0.07672693  0.01281143    -0.14900
C1349       C  0.17545958  0.07993568  0.98321423     0.35700
C1350       C  0.20064068  0.10685315  0.98122736    -0.26300
C1351       C  0.20507300  0.13093355  0.00827470    -0.15500
C1352       C  0.18122425  0.12722911  0.03833335     0.36800
N1353       N  0.18037672  0.15023571  0.06711756    -0.89800
H1354       H  0.13751816  0.09836951  0.06295013     0.17900
H1355       H  0.21758151  0.10894721  0.95773160     0.17900
N1356       N  0.17342589  0.05643623  0.95467343    -0.88800
H1357       H  0.16909272  0.17363196  0.05916608     0.35300
H1358       H  0.20681225  0.15298689  0.07774223     0.40400
H1359       H  0.18348937  0.03277945  0.96357767     0.40000
H1360       H  0.19113162  0.06379155  0.93399616     0.34900
C1361       C  0.05701968  0.01153714  0.17689234    -0.26800
C1362       C  0.06758252  0.98413242  0.15522376    -0.14900
C1363       C  0.09347922  0.96010303  0.16854805     0.35700
C1364       C  0.11035476  0.96564521  0.20100240    -0.26300
C1365       C  0.10400772  0.99590056  0.22073036    -0.15500
C1366       C  0.07389252  0.01707856  0.20934942     0.36800
N1367       N  0.06107190  0.04524904  0.23003940    -0.89800
H1368       H  0.03584386  0.02954438  0.16819652     0.17900
H1369       H  0.12908136  0.94584366  0.21005683     0.17900
N1370       N  0.10446500  0.93044623  0.14923528    -0.88800
H1371       H  0.03272641  0.04150628  0.23598393     0.35300
H1372       H  0.06332055  0.06767038  0.21505491     0.40400
H1373       H  0.11547307  0.93838765  0.12508510     0.40000
H1374       H  0.08071158  0.91565811  0.14513496     0.34900
C1375       C  0.02242063  0.30003674  0.06900876    -0.26800
C1376       C  0.99055914  0.27878034  0.06717174    -0.14900
C1377       C  0.96285934  0.28790886  0.04229713     0.35700
C1378       C  0.96657728  0.31770998  0.02199921    -0.26300
C1379       C  0.99731111  0.33908144  0.02554231    -0.15500
C1380       C  0.02601830  0.32980272  0.04845672     0.36800
N1381       N  0.05785975  0.35173147  0.05216506    -0.89800
H1382       H  0.04359259  0.29554179  0.08821827     0.17900
H1383       H  0.94399345  0.32536984  0.00498817     0.17900
N1384       N  0.93001727  0.26755019  0.03839438    -0.88800
H1385       H  0.07702396  0.34097273  0.06951847     0.35300
H1386       H  0.04842639  0.37452298  0.06336661     0.40400
H1387       H  0.92880804  0.25988457  0.01240918     0.40000
H1388       H  0.90656329  0.28290625  0.04366534     0.34900
C1389       C  0.05205665  0.23362978  0.10384879    -0.26800
C1390       C  0.01698481  0.24260866  0.11891498    -0.14900
C1391       C  0.01492164  0.24288356  0.15627086     0.35700
C1392       C  0.04787096  0.24250234  0.17560567    -0.26300
C1393       C  0.08278913  0.23737921  0.15965268    -0.15500
C1394       C  0.08439240  0.23046228  0.12362847     0.36800
N1395       N  0.11864361  0.22160012  0.10604165    -0.89800
H1396       H  0.05464081  0.23028307  0.07591178     0.17900
H1397       H  0.04598804  0.24525993  0.20367794     0.17900
N1398       N  0.98021816  0.24100256  0.17538259    -0.88800
H1399       H  0.12838568  0.19840108  0.11636215     0.35300
H1400       H  0.13810661  0.24055851  0.11110630     0.40400
H1401       H  0.98032191  0.21851146  0.19039633     0.40000
H1402       H  0.97887553  0.26150217  0.19265920     0.34900
C1403       C  0.98912471  0.21095094  0.03772637    -0.26800
C1404       C  0.98037841  0.21379290  0.07384233    -0.14900
C1405       C  0.97280459  0.18295015  0.09258092     0.35700
C1406       C  0.97194717  0.15180324  0.07528641    -0.26300
C1407       C  0.98108603  0.14945683  0.03978026    -0.15500
C1408       C  0.98944306  0.17946377  0.02075658     0.36800
N1409       N  0.00087163  0.17860114  0.98480512    -0.89800
H1410       H  0.99801447  0.23278494  0.02234122     0.17900
H1411       H  0.96617119  0.12878529  0.09043097     0.17900
N1412       N  0.96705590  0.18280407  0.12961064    -0.88800
H1413       H  0.97913451  0.16834175  0.97040615     0.35300
H1414       H  0.02443369  0.16273332  0.98239221     0.40400
H1415       H  0.98761432  0.16718562  0.14077909     0.40000
H1416       H  0.94098908  0.17189764  0.13528151     0.34900
C1417       C  0.99521348  0.31945219  0.59608641    -0.26800
C1418       C  0.99507161  0.28782946  0.57879396    -0.14900
C1419       C  0.98973573  0.28913371  0.54176208     0.35700
C1420       C  0.99153467  0.32091952  0.52363552    -0.26300
C1421       C  0.99447990  0.35164224  0.54180635    -0.15500
C1422       C  0.99260365  0.35048273  0.57848755     0.36800
N1423       N  0.98700310  0.38098153  0.59836174    -0.89800
H1424       H  0.99693485  0.32015795  0.62424270     0.17900
H1425       H  0.99021539  0.32152407  0.49543888     0.17900
N1426       N  0.98008688  0.25944247  0.52245343    -0.88800
H1427       H  0.00739571  0.38143528  0.61755029     0.35300
H1428       H  0.96111688  0.37899341  0.61130321     0.40400
H1429       H  0.99908212  0.25703171  0.50160756     0.40000
H1430       H  0.95366345  0.26360904  0.51181277     0.34900
C1431       C  0.96223168  0.19784447  0.59515074    -0.26800
C1432       C  0.99110923  0.22087759  0.58498855    -0.14900
C1433       C  0.01878278  0.20867469  0.56117591     0.35700
C1434       C  0.01603177  0.17592666  0.54735307    -0.26300
C1435       C  0.98716617  0.15354869  0.55757598    -0.15500
C1436       C  0.95988369  0.16490545  0.58160720     0.36800
N1437       N  0.93051754  0.14273377  0.59369040    -0.89800
H1438       H  0.94180232  0.20403145  0.61513281     0.17900
H1439       H  0.03765812  0.16774961  0.52909036     0.17900
N1440       N  0.05065063  0.22901206  0.55168170    -0.88800
H1441       H  0.90487186  0.15448229  0.58817421     0.35300
H1442       H  0.93244453  0.14009849  0.62076001     0.40400
H1443       H  0.05221120  0.23119260  0.52452873     0.40000
H1444       H  0.07466213  0.21588546  0.55973114     0.34900
C1445       C  0.10152772  0.26357893  0.63190014    -0.26800
C1446       C  0.10515107  0.23727637  0.65679354    -0.14900
C1447       C  0.07352096  0.21706538  0.66423925     0.35700
C1448       C  0.03919827  0.22413999  0.64737556    -0.26300
C1449       C  0.03471752  0.25167181  0.62306744    -0.15500
C1450       C  0.06786592  0.27077548  0.61486689     0.36800
N1451       N  0.06918856  0.29639720  0.58791857    -0.89800
H1452       H  0.12574364  0.27889976  0.62488268     0.17900
H1453       H  0.01548684  0.20790527  0.65351449     0.17900
N1454       N  0.07565593  0.18991923  0.68947200    -0.88800
H1455       H  0.08933049  0.28922366  0.56926636     0.35300
H1456       H  0.07765688  0.31941948  0.59888410     0.40400
H1457       H  0.06831853  0.16719271  0.67727204     0.40000
H1458       H  0.05575144  0.19475284  0.70911502     0.34900
C1459       C  0.26545309  0.33875539  0.58721430    -0.26800
C1460       C  0.27034275  0.30354458  0.58935118    -0.14900
C1461       C  0.27413122  0.28398884  0.55897098     0.35700
C1462       C  0.27120842  0.30039003  0.52645495    -0.26300
C1463       C  0.26423237  0.33599468  0.52381047    -0.15500
C1464       C  0.26253982  0.35519259  0.55528921     0.36800
N1465       N  0.25654835  0.39150315  0.55520059    -0.89800
H1466       H  0.26312497  0.35377912  0.61078443     0.17900
H1467       H  0.27522608  0.28505237  0.50346243     0.17900
N1468       N  0.27955376  0.24755197  0.56121731    -0.88800
H1469       H  0.27902045  0.40285939  0.56771455     0.35300
H1470       H  0.23221996  0.39684444  0.56972216     0.40400
H1471       H  0.30633374  0.24310623  0.57092687     0.40000
H1472       H  0.27937847  0.23674181  0.53640968     0.34900
C1473       C  0.26947908  0.19069501  0.95480089    -0.26800
C1474       C  0.23627148  0.17518993  0.96769623    -0.14900
C1475       C  0.20332156  0.17889289  0.94704261     0.35700
C1476       C  0.20712885  0.18954493  0.91256247    -0.26300
C1477       C  0.24177946  0.19894095  0.89839765    -0.15500
C1478       C  0.27301683  0.20118711  0.91993952     0.36800
N1479       N  0.30817007  0.21350643  0.90629274    -0.89800
H1480       H  0.29395728  0.19127681  0.97106874     0.17900
H1481       H  0.18239061  0.19048178  0.89653832     0.17900
N1482       N  0.16543642  0.17448473  0.95954219    -0.88800
H1483       H  0.32848753  0.21303351  0.92561925     0.35300
H1484       H  0.30442566  0.23915313  0.89906789     0.40400
H1485       H  0.16228285  0.17431617  0.98647577     0.40000
H1486       H  0.15460867  0.15206976  0.94918662     0.34900
C1487       C  0.52445403  0.30862994  0.89944124    -0.26800
C1488       C  0.50061853  0.28324783  0.91427025    -0.14900
C1489       C  0.47308435  0.29481110  0.93861159     0.35700
C1490       C  0.47232925  0.32922634  0.94924219    -0.26300
C1491       C  0.49671441  0.35385338  0.93451466    -0.15500
C1492       C  0.52244748  0.34295862  0.90852392     0.36800
N1493       N  0.54570016  0.36612325  0.88894501    -0.89800
H1494       H  0.54370489  0.30293939  0.87827909     0.17900
H1495       H  0.45140344  0.33682838  0.96844188     0.17900
N1496       N  0.44444525  0.27229206  0.95140762    -0.88800
H1497       H  0.56490939  0.37695115  0.90559270     0.35300
H1498       H  0.52896653  0.38509971  0.87757441     0.40400
H1499       H  0.41854445  0.28243079  0.94407778     0.40000
H1500       H  0.44514830  0.27197204  0.97864916     0.34900
C1501       C  0.50465562  0.15326697  0.92966958    -0.26800
C1502       C  0.50199115  0.15510525  0.96611663    -0.14900
C1503       C  0.50212198  0.18769126  0.98150151     0.35700
C1504       C  0.50260539  0.21747432  0.95974271    -0.26300
C1505       C  0.50022121  0.21536424  0.92282896    -0.15500
C1506       C  0.50189275  0.18205148  0.90832056     0.36800
N1507       N  0.49944070  0.17700815  0.87145732    -0.89800
H1508       H  0.50641375  0.12861520  0.91704681     0.17900
H1509       H  0.50486256  0.24209223  0.97193537     0.17900
N1510       N  0.50061427  0.19056218  0.01876876    -0.88800
H1511       H  0.47625554  0.16165095  0.86673986     0.35300
H1512       H  0.52344180  0.16379959  0.86306648     0.40400
H1513       H  0.52550627  0.18024989  0.02842131     0.40000
H1514       H  0.49994056  0.21629419  0.02592204     0.34900
C1515       C  0.45924514  0.27369327  0.84843454    -0.26800
C1516       C  0.46229083  0.24847071  0.87529273    -0.14900
C1517       C  0.42900359  0.22955426  0.88331771     0.35700
C1518       C  0.39674932  0.23424026  0.86334724    -0.26300
C1519       C  0.39458247  0.25856664  0.83633812    -0.15500
C1520       C  0.42641228  0.27870596  0.82906129     0.36800
N1521       N  0.42681076  0.30360198  0.80140884    -0.89800
H1522       H  0.48300178  0.28978032  0.84215199     0.17900
H1523       H  0.37258086  0.21863092  0.86954855     0.17900
N1524       N  0.42622337  0.20657113  0.91257238    -0.88800
H1525       H  0.40620666  0.32200518  0.80670980     0.35300
H1526       H  0.42030852  0.29137496  0.77818620     0.40400
H1527       H  0.41895138  0.18241298  0.90349032     0.40000
H1528       H  0.40458822  0.21504763  0.92907142     0.34900
C1529       C  0.59753571  0.97900876  0.30665452    -0.26800
C1530       C  0.59860524  0.00545016  0.28089626    -0.14900
C1531       C  0.57503501  0.03446207  0.28768350     0.35700
C1532       C  0.55036510  0.03496504  0.31687958    -0.26300
C1533       C  0.54778184  0.00726306  0.34028471    -0.15500
C1534       C  0.57205958  0.97918988  0.33522318     0.36800
N1535       N  0.57243997  0.95173826  0.36050996    -0.89800
H1536       H  0.61708894  0.95798018  0.30568549     0.17900
H1537       H  0.53357351  0.05767405  0.32170140     0.17900
N1538       N  0.57627062  0.06398722  0.26523040    -0.88800
H1539       H  0.59267100  0.93337060  0.35390464     0.35300
H1540       H  0.54655486  0.93950518  0.35959574     0.40400
H1541       H  0.58402430  0.08497632  0.28009867     0.40000
H1542       H  0.54932909  0.06869046  0.25599408     0.34900
C1543       C  0.60389285  0.99760430  0.14883594    -0.26800
C1544       C  0.56673013  0.00880504  0.14767140    -0.14900
C1545       C  0.54651857  0.01301886  0.17908257     0.35700
C1546       C  0.56457201  0.00728506  0.21110506    -0.26300
C1547       C  0.60358407  0.00048660  0.21282626    -0.15500
C1548       C  0.62255853  0.99375562  0.18046803     0.36800
N1549       N  0.66172871  0.98568492  0.17918094    -0.89800
H1550       H  0.61912695  0.99278283  0.12468550     0.17900
H1551       H  0.54756255  0.00887867  0.23440640     0.17900
N1552       N  0.50742923  0.02196723  0.17838085    -0.88800
H1553       H  0.67541677  0.00434871  0.16408176     0.35300
H1554       H  0.66517792  0.96215402  0.16678371     0.40400
H1555       H  0.50527106  0.04664464  0.16778612     0.40000
H1556       H  0.49625109  0.02325042  0.20369339     0.34900
C1557       C  0.68062834  0.08543915  0.27539804    -0.26800
C1558       C  0.67895453  0.10648152  0.24535570    -0.14900
C1559       C  0.66379157  0.09276741  0.21512361     0.35700
C1560       C  0.64822679  0.06008838  0.21600069    -0.26300
C1561       C  0.64859627  0.03839308  0.24609041    -0.15500
C1562       C  0.66648595  0.05170837  0.27583751     0.36800
N1563       N  0.66920132  0.03154408  0.30710597    -0.89800
H1564       H  0.69290792  0.09521821  0.29889955     0.17900
H1565       H  0.63437523  0.05349613  0.19245726     0.17900
N1566       N  0.66244035  0.11245668  0.18340155    -0.88800
H1567       H  0.65546495  0.04469758  0.32721626     0.35300
H1568       H  0.69748235  0.02937913  0.31341646     0.40400
H1569       H  0.63446798  0.11503360  0.17615595     0.40000
H1570       H  0.67670180  0.09881335  0.16394329     0.34900
C1571       C  0.55073249  0.23789503  0.30670099    -0.26800
C1572       C  0.58416210  0.23704180  0.32508580    -0.14900
C1573       C  0.58336689  0.23983313  0.36152284     0.35700
C1574       C  0.54945950  0.24606128  0.37848853    -0.26300
C1575       C  0.51566818  0.25080356  0.36012318    -0.15500
C1576       C  0.51636588  0.24324123  0.32383289     0.36800
N1577       N  0.48291882  0.23900747  0.30431336    -0.89800
H1578       H  0.55134995  0.23450301  0.27867556     0.17900
H1579       H  0.54986439  0.24925849  0.40644395     0.17900
N1580       N  0.61674291  0.23868984  0.38178450    -0.88800
H1581       H  0.48268287  0.21403566  0.29483351     0.35300
H1582       H  0.48391136  0.25567630  0.28281405     0.40400
H1583       H  0.63487979  0.25784904  0.37280259     0.40000
H1584       H  0.62970669  0.21489052  0.37834323     0.34900
C1585       C  0.91403881  0.29406135  0.15658329    -0.26800
C1586       C  0.88566263  0.26973216  0.15915783    -0.14900
C1587       C  0.88466384  0.24310479  0.13472902     0.35700
C1588       C  0.91438675  0.23864804  0.11141914    -0.26300
C1589       C  0.94690092  0.25876500  0.11317205    -0.15500
C1590       C  0.94450017  0.28912071  0.13347629     0.36800
N1591       N  0.97423445  0.31352529  0.13282595    -0.89800
H1592       H  0.91374499  0.31579503  0.17388770     0.17900
H1593       H  0.91195929  0.21837694  0.09271522     0.17900
N1594       N  0.85363129  0.22019810  0.13278742    -0.88800
H1595       H  0.98441773  0.31584375  0.15807810     0.35300
H1596       H  0.96307139  0.33722978  0.12532838     0.40400
H1597       H  0.82934980  0.23463967  0.12864291     0.40000
H1598       H  0.85094204  0.20670060  0.15632648     0.34900
C1599       C  0.86857639  0.50918827  0.32476160    -0.26800
C1600       C  0.89072508  0.50728123  0.29351981    -0.14900
C1601       C  0.93040534  0.50500145  0.29818480     0.35700
C1602       C  0.94511581  0.50074910  0.33205630    -0.26300
C1603       C  0.92204566  0.49922193  0.36207402    -0.15500
C1604       C  0.88345617  0.50456748  0.35826959     0.36800
N1605       N  0.85919384  0.50449108  0.38854593    -0.89800
H1606       H  0.83848710  0.51186251  0.32279919     0.17900
H1607       H  0.97520236  0.49918551  0.33500751     0.17900
N1608       N  0.95710837  0.50859498  0.27024765    -0.88800
H1609       H  0.83127331  0.50780239  0.38140318     0.35300
H1610       H  0.86597077  0.52571329  0.40344512     0.40400
H1611       H  0.95092621  0.53023182  0.25519520     0.40000
H1612       H  0.95749554  0.48671250  0.25521964     0.34900
C1613       C  0.88850377  0.53448400  0.19831098    -0.26800
C1614       C  0.89083448  0.50615118  0.22209284    -0.14900
C1615       C  0.90944698  0.47653986  0.20824465     0.35700
C1616       C  0.92521644  0.47680290  0.17395837    -0.26300
C1617       C  0.92339355  0.50577345  0.15176850    -0.15500
C1618       C  0.90477970  0.53480218  0.16465717     0.36800
N1619       N  0.90039606  0.56459500  0.14295507    -0.89800
H1620       H  0.87247775  0.55705985  0.20401809     0.17900
H1621       H  0.93879090  0.45373514  0.16454554     0.17900
N1622       N  0.91129609  0.44531702  0.22811870    -0.88800
H1623       H  0.91204038  0.58537376  0.15574344     0.35300
H1624       H  0.87177003  0.56940016  0.14013037     0.40400
H1625       H  0.93926882  0.43748437  0.22952602     0.40000
H1626       H  0.89706075  0.42652969  0.21448210     0.34900
C1627       C  0.85201711  0.44587446  0.28630173    -0.26800
C1628       C  0.84492911  0.47108443  0.25986471    -0.14900
C1629       C  0.82078362  0.46069433  0.23285089     0.35700
C1630       C  0.80373506  0.42805793  0.23412279    -0.26300
C1631       C  0.80992399  0.40470142  0.26178807    -0.15500
C1632       C  0.83422477  0.41435050  0.28824074     0.36800
N1633       N  0.84358033  0.39186964  0.31662688    -0.89800
H1634       H  0.87333509  0.44877356  0.30554252     0.17900
H1635       H  0.78594990  0.42072880  0.21287685     0.17900
N1636       N  0.81502187  0.48231800  0.20299857    -0.88800
H1637       H  0.85407201  0.36890157  0.30660277     0.35300
H1638       H  0.81947640  0.38714962  0.33164412     0.40400
H1639       H  0.78624866  0.48646479  0.20047316     0.40000
H1640       H  0.82452114  0.46920127  0.18091819     0.34900
C1641       C  0.26937072  0.81622979  0.54468216    -0.26800
C1642       C  0.25761867  0.85071368  0.54279858    -0.14900
C1643       C  0.26024397  0.86943609  0.57445585     0.35700
C1644       C  0.26227477  0.85195016  0.60633863    -0.26300
C1645       C  0.26535951  0.81647646  0.60757631    -0.15500
C1646       C  0.27124421  0.79835404  0.57646250     0.36800
N1647       N  0.28051062  0.76249490  0.57606280    -0.89800
H1648       H  0.27948859  0.80332594  0.52181526     0.17900
H1649       H  0.26102985  0.86612262  0.63049069     0.17900
N1650       N  0.26193842  0.90610113  0.57434149    -0.88800
H1651       H  0.25851970  0.74978970  0.56419454     0.35300
H1652       H  0.28272614  0.75236245  0.60124187     0.40400
H1653       H  0.28734290  0.91310340  0.56252467     0.40000
H1654       H  0.26243262  0.91561069  0.59970578     0.34900
C1655       C  0.20597128  0.92380902  0.52585807    -0.26800
C1656       C  0.20831398  0.88840844  0.51895845    -0.14900
C1657       C  0.17514368  0.86933069  0.52640130     0.35700
C1658       C  0.14087994  0.88584179  0.53326363    -0.26300
C1659       C  0.13841083  0.92132313  0.53479408    -0.15500
C1660       C  0.17169190  0.94056405  0.53263880     0.36800
N1661       N  0.17177505  0.97714154  0.53634398    -0.89800
H1662       H  0.23086244  0.93891752  0.52755189     0.17900
H1663       H  0.11563262  0.87071955  0.53586541     0.17900
N1664       N  0.17583567  0.83284367  0.52748337    -0.88800
H1665       H  0.18821773  0.98275068  0.55782153     0.35300
H1666       H  0.14503728  0.98654397  0.54223392     0.40400
H1667       H  0.15623157  0.82402992  0.50978312     0.40000
H1668       H  0.16738702  0.82481801  0.55246777     0.34900
C1669       C  0.31882762  0.93807729  0.47070014    -0.26800
C1670       C  0.35222431  0.91982734  0.47490312    -0.14900
C1671       C  0.35046079  0.88549500  0.48585222     0.35700
C1672       C  0.31588052  0.87140517  0.49527220    -0.26300
C1673       C  0.28165187  0.89022881  0.49562791    -0.15500
C1674       C  0.28368295  0.92359896  0.47929143     0.36800
N1675       N  0.25132864  0.94275225  0.46897560    -0.89800
H1676       H  0.31999177  0.96428535  0.46120896     0.17900
H1677       H  0.31649677  0.84478494  0.50252300     0.17900
N1678       N  0.38335618  0.86417392  0.48854073    -0.88800
H1679       H  0.25273682  0.94623222  0.44191148     0.35300
H1680       H  0.25274172  0.96711804  0.47989325     0.40400
H1681       H  0.40736809  0.87686256  0.47970482     0.40000
H1682       H  0.38004879  0.84354549  0.47176263     0.34900
C1683       C  0.23846274  0.79881911  0.43529238    -0.26800
C1684       C  0.23855839  0.82057565  0.40614382    -0.14900
C1685       C  0.23193409  0.85573579  0.41100792     0.35700
C1686       C  0.22793574  0.86803520  0.44482989    -0.26300
C1687       C  0.23574610  0.84795842  0.47468921    -0.15500
C1688       C  0.23478996  0.81166213  0.46935298     0.36800
N1689       N  0.22337375  0.78780471  0.49602828    -0.89800
H1690       H  0.23917839  0.77136659  0.43150174     0.17900
H1691       H  0.22046018  0.89446355  0.44752801     0.17900
N1692       N  0.23062125  0.88015284  0.38270005    -0.88800
H1693       H  0.24219549  0.76717158  0.49598542     0.35300
H1694       H  0.19756871  0.77771376  0.48897964     0.40400
H1695       H  0.23732021  0.86913727  0.35877699     0.40000
H1696       H  0.25156561  0.89818131  0.38673125     0.34900
C1697       C  0.29712594  0.57771752  0.27245616    -0.26800
C1698       C  0.29998514  0.60254572  0.24562492    -0.14900
C1699       C  0.32414457  0.59509637  0.21714868     0.35700
C1700       C  0.34790996  0.56660689  0.21805612    -0.26300
C1701       C  0.34500277  0.54057703  0.24380681    -0.15500
C1702       C  0.31865547  0.54682836  0.27146079     0.36800
N1703       N  0.31403139  0.52213752  0.29899457    -0.89800
H1704       H  0.27880957  0.58251345  0.29466532     0.17900
H1705       H  0.36875996  0.56572475  0.19751002     0.17900
N1706       N  0.32470018  0.61637355  0.18644851    -0.88800
H1707       H  0.28590856  0.51490279  0.29999308     0.35300
H1708       H  0.32016666  0.53396546  0.32250939     0.40400
H1709       H  0.31695925  0.60137095  0.16537215     0.40000
H1710       H  0.35223386  0.62425597  0.18180862     0.34900
C1711       C  0.20953205  0.93909496  0.23613773    -0.26800
C1712       C  0.20480270  0.91567763  0.26398506    -0.14900
C1713       C  0.18199443  0.92640749  0.29244592     0.35700
C1714       C  0.16121106  0.95705368  0.29055124    -0.26300
C1715       C  0.15995767  0.97738270  0.25992315    -0.15500
C1716       C  0.18870623  0.97010878  0.23440566     0.36800
N1717       N  0.19732001  0.99318454  0.20615711    -0.89800
H1718       H  0.22862656  0.93287017  0.21488886     0.17900
H1719       H  0.14499038  0.96392279  0.31342726     0.17900
N1720       N  0.17915843  0.90606557  0.32363065    -0.88800
H1721       H  0.20667518  0.01614520  0.21648603     0.35300
H1722       H  0.17363354  0.99801336  0.19135875     0.40400
H1723       H  0.15111114  0.89926537  0.32739001     0.40000
H1724       H  0.18677052  0.92134199  0.34452758     0.34900
C1725       C  0.07784881  0.71279992  0.33681267    -0.26800
C1726       C  0.10882842  0.73180953  0.34735837    -0.14900
C1727       C  0.10487112  0.75330554  0.37633391     0.35700
C1728       C  0.06956170  0.75851119  0.39144273    -0.26300
C1729       C  0.03678692  0.74297749  0.37866983    -0.15500
C1730       C  0.04227591  0.71734996  0.35301274     0.36800
N1731       N  0.01188885  0.69607713  0.34311864    -0.89800
H1732       H  0.08088700  0.69527698  0.31525055     0.17900
H1733       H  0.06827143  0.77474732  0.41403606     0.17900
N1734       N  0.13699985  0.77036701  0.39003971    -0.88800
H1735       H  0.01935638  0.67070684  0.34863227     0.35300
H1736       H  0.00860495  0.69829615  0.31617108     0.40400
H1737       H  0.15523363  0.75154993  0.39953689     0.40000
H1738       H  0.12949788  0.78573577  0.41120251     0.34900
C1739       C  0.02327913  0.71366730  0.44972539    -0.26800
C1740       C  0.99573767  0.71775643  0.42346178    -0.14900
C1741       C  0.97041526  0.69029529  0.41965550     0.35700
C1742       C  0.97144534  0.66229160  0.44265456    -0.26300
C1743       C  0.99923364  0.65794442  0.46816276    -0.15500
C1744       C  0.02556303  0.68440622  0.47145815     0.36800
N1745       N  0.05490206  0.68255601  0.49640233    -0.89800
H1746       H  0.04363372  0.73357388  0.45345286     0.17900
H1747       H  0.95086250  0.64258180  0.43863690     0.17900
N1748       N  0.94484008  0.68888231  0.39133989    -0.88800
H1749       H  0.07202152  0.66153008  0.49059963     0.35300
H1750       H  0.04285668  0.67901778  0.52118434     0.40400
H1751       H  0.91770966  0.68668760  0.40174560     0.40000
H1752       H  0.95060945  0.66678992  0.37703946     0.34900
C1753       C  0.01051277  0.81292096  0.39621575    -0.26800
C1754       C  0.99969276  0.78434594  0.41698452    -0.14900
C1755       C  0.98631929  0.79075594  0.45145777     0.35700
C1756       C  0.98645671  0.82420867  0.46420667    -0.26300
C1757       C  0.99850669  0.85175876  0.44334167    -0.15500
C1758       C  0.01043091  0.84595789  0.40883351     0.36800
N1759       N  0.02099398  0.87314262  0.38533370    -0.89800
H1760       H  0.01953879  0.80951629  0.36947645     0.17900
H1761       H  0.97626873  0.82877096  0.49053645     0.17900
N1762       N  0.97058054  0.76436952  0.47318871    -0.88800
H1763       H  0.04503912  0.88487677  0.39450231     0.35300
H1764       H  0.99917359  0.89107526  0.38429170     0.40400
H1765       H  0.94301911  0.77126209  0.47963722     0.40000
H1766       H  0.98574614  0.76317939  0.49626656     0.34900
C1767       C  0.71387376  0.22268193  0.43560357    -0.26800
C1768       C  0.74269783  0.22441535  0.41030364    -0.14900
C1769       C  0.77262880  0.20101869  0.41292909     0.35700
C1770       C  0.77287706  0.17645896  0.43943297    -0.26300
C1771       C  0.74592532  0.17562126  0.46696740    -0.15500
C1772       C  0.71534443  0.19907283  0.46385706     0.36800
N1773       N  0.68514441  0.19853325  0.48883038    -0.89800
H1774       H  0.68932445  0.23883815  0.43270258     0.17900
H1775       H  0.79437176  0.15726256  0.43664125     0.17900
N1776       N  0.80202212  0.19946843  0.38714733    -0.88800
H1777       H  0.66045096  0.19346685  0.47561269     0.35300
H1778       H  0.68266085  0.22287319  0.49968389     0.40400
H1779       H  0.81370113  0.22379197  0.38411606     0.40000
H1780       H  0.79062462  0.19176540  0.36368653     0.34900
C1781       C  0.85301259  0.11862985  0.48406102    -0.26800
C1782       C  0.84909606  0.08373758  0.47803278    -0.14900
C1783       C  0.81332173  0.06901298  0.48063288     0.35700
C1784       C  0.78181569  0.08981972  0.48785630    -0.26300
C1785       C  0.78485761  0.12561759  0.49230210    -0.15500
C1786       C  0.82191820  0.13936218  0.49201527     0.36800
N1787       N  0.82814452  0.17481221  0.49903045    -0.89800
H1788       H  0.88075819  0.12970189  0.48419206     0.17900
H1789       H  0.75524054  0.07726590  0.49103774     0.17900
N1790       N  0.80931397  0.03267218  0.47683308    -0.88800
H1791       H  0.84226782  0.18573188  0.47761990     0.35300
H1792       H  0.84556396  0.17631680  0.52059992     0.40400
H1793       H  0.81739125  0.02659360  0.45131316     0.40000
H1794       H  0.78126370  0.02558506  0.47973990     0.34900
C1795       C  0.68917312  0.12985342  0.53378847    -0.26800
C1796       C  0.71161558  0.12908824  0.50262684    -0.14900
C1797       C  0.69671097  0.11053071  0.47458093     0.35700
C1798       C  0.66333765  0.09177950  0.47900227    -0.26300
C1799       C  0.64220005  0.09156417  0.51058238    -0.15500
C1800       C  0.65579844  0.11123325  0.53815395     0.36800
N1801       N  0.63581400  0.11401280  0.57066851    -0.89800
H1802       H  0.69629063  0.14577985  0.55540854     0.17900
H1803       H  0.65373537  0.07750054  0.45688264     0.17900
N1804       N  0.71530084  0.11070134  0.44118620    -0.88800
H1805       H  0.63375277  0.08965930  0.58202304     0.35300
H1806       H  0.60895458  0.12354593  0.56587028     0.40400
H1807       H  0.69676549  0.12077269  0.42285556     0.40000
H1808       H  0.72131868  0.08540443  0.43437103     0.34900
C1809       C  0.17031944  0.59567461  0.76900092    -0.26800
C1810       C  0.20945442  0.59787175  0.76594008    -0.14900
C1811       C  0.22991299  0.56695917  0.76193690     0.35700
C1812       C  0.21082665  0.53534073  0.76012141    -0.26300
C1813       C  0.17112258  0.53362991  0.75988865    -0.15500
C1814       C  0.15125872  0.56478203  0.76584161     0.36800
N1815       N  0.11112971  0.56567332  0.76641426    -0.89800
H1816       H  0.15359853  0.61861900  0.77224542     0.17900
H1817       H  0.22752319  0.51230181  0.75850125     0.17900
N1818       N  0.26995521  0.56668847  0.76024261    -0.88800
H1819       H  0.10216892  0.58224018  0.74660442     0.35300
H1820       H  0.10214361  0.57568662  0.79031297     0.40400
H1821       H  0.27991758  0.57857019  0.78251546     0.40000
H1822       H  0.27858399  0.58080756  0.73830642     0.34900
C1823       C  0.16449052  0.43643454  0.76822462    -0.26800
C1824       C  0.17263103  0.46621905  0.74784023    -0.14900
C1825       C  0.20102228  0.46196416  0.72155257     0.35700
C1826       C  0.22163918  0.43075822  0.71873136    -0.26300
C1827       C  0.21480885  0.40290773  0.74141946    -0.15500
C1828       C  0.18566849  0.40601870  0.76621192     0.36800
N1829       N  0.17646320  0.37737365  0.78855773    -0.89800
H1830       H  0.14071391  0.43575914  0.78584296     0.17900
H1831       H  0.24253793  0.42808758  0.69814812     0.17900
N1832       N  0.20846614  0.48876233  0.69677690    -0.88800
H1833       H  0.15361738  0.38308455  0.80489277     0.35300
H1834       H  0.19922277  0.37299268  0.80484881     0.40400
H1835       H  0.20337071  0.47936978  0.67189985     0.40000
H1836       H  0.23687147  0.49485770  0.69785993     0.34900
C1837       C  0.09865142  0.48166879  0.70731085    -0.26800
C1838       C  0.12596069  0.50573634  0.71694327    -0.14900
C1839       C  0.13417080  0.53175939  0.69076680     0.35700
C1840       C  0.11381888  0.53421713  0.65951813    -0.26300
C1841       C  0.08659980  0.51057683  0.65078629    -0.15500
C1842       C  0.07881309  0.48411965  0.67546682     0.36800
N1843       N  0.05024952  0.45969010  0.66867417    -0.89800
H1844       H  0.09259306  0.46036818  0.72474688     0.17900
H1845       H  0.12135556  0.55395516  0.64066141     0.17900
N1846       N  0.16497241  0.55476855  0.69357595    -0.88800
H1847       H  0.03015516  0.46118134  0.68873161     0.35300
H1848       H  0.06234876  0.43527683  0.66968179     0.40400
H1849       H  0.18322082  0.55105162  0.67235147     0.40000
H1850       H  0.15462307  0.57983005  0.69200614     0.34900
C1851       C  0.12100220  0.48768416  0.85176634    -0.26800
C1852       C  0.08187669  0.48646523  0.85265455    -0.14900
C1853       C  0.06303148  0.49115483  0.82050208     0.35700
C1854       C  0.08378909  0.49587277  0.78879315    -0.26300
C1855       C  0.12352570  0.49605531  0.78751409    -0.15500
C1856       C  0.14163369  0.49237492  0.82043490     0.36800
N1857       N  0.18165971  0.49281486  0.82225323    -0.89800
H1858       H  0.13602692  0.48535323  0.87601942     0.17900
H1859       H  0.06812850  0.50056103  0.76539664     0.17900
N1860       N  0.02287973  0.49282286  0.81901306    -0.88800
H1861       H  0.19060715  0.46977346  0.83355713     0.35300
H1862       H  0.18926185  0.51273902  0.83861769     0.40400
H1863       H  0.01048441  0.48958922  0.84363410     0.40000
H1864       H  0.01409669  0.47234443  0.80394410     0.34900
C1865       C  0.26310775  0.70176383  0.93567048    -0.26800
C1866       C  0.23964684  0.69011230  0.90950052    -0.14900
C1867       C  0.21634767  0.66183093  0.91650224     0.35700
C1868       C  0.21819702  0.64542563  0.94856635    -0.26300
C1869       C  0.24205784  0.65641823  0.97541186    -0.15500
C1870       C  0.26541904  0.68491887  0.96773618     0.36800
N1871       N  0.29287753  0.69631973  0.99162731    -0.89800
H1872       H  0.28130887  0.72344443  0.93087544     0.17900
H1873       H  0.20224658  0.62214147  0.95077415     0.17900
N1874       N  0.19181256  0.64763704  0.89128461    -0.88800
H1875       H  0.28739057  0.72200624  0.99725376     0.35300
H1876       H  0.31906960  0.69508164  0.97910540     0.40400
H1877       H  0.20742393  0.64016099  0.86934450     0.40000
H1878       H  0.17168531  0.66593702  0.88444490     0.34900
C1879       C  0.21942899  0.57175997  0.01149286    -0.26800
C1880       C  0.21482554  0.60771198  0.01203026    -0.14900
C1881       C  0.17749895  0.62085754  0.01340474     0.35700
C1882       C  0.14730820  0.59928441  0.00790091    -0.26300
C1883       C  0.15274367  0.56437055  0.00288174    -0.15500
C1884       C  0.18878386  0.55004481  0.00631124     0.36800
N1885       N  0.19415573  0.51366051  0.00384808    -0.89800
H1886       H  0.24691769  0.56039031  0.01400875     0.17900
H1887       H  0.11923964  0.61003292  0.00748858     0.17900
N1888       N  0.17015979  0.65668227  0.01731016    -0.88800
H1889       H  0.22237687  0.50720556  0.00685670     0.35300
H1890       H  0.18704306  0.50650953  0.97862872     0.40400
H1891       H  0.15283815  0.65990857  0.03926715     0.40000
H1892       H  0.15562171  0.66548938  0.99549202     0.34900
C1893       C  0.28724244  0.59374133  0.96867144    -0.26800
C1894       C  0.28648970  0.61556838  0.99812674    -0.14900
C1895       C  0.32188464  0.62501163  0.01202530     0.35700
C1896       C  0.35478603  0.61118555  0.99799708    -0.26300
C1897       C  0.35424896  0.58778656  0.97098014    -0.15500
C1898       C  0.32042700  0.57886195  0.95590792     0.36800
N1899       N  0.31984773  0.55439427  0.92819298    -0.89800
H1900       H  0.26147824  0.58767545  0.95575840     0.17900
H1901       H  0.38130336  0.61790413  0.00941010     0.17900
N1902       N  0.32569546  0.64896320  0.03975257    -0.88800
H1903       H  0.29250112  0.55089030  0.91967360     0.35300
H1904       H  0.32869325  0.53081255  0.93835457     0.40400
H1905       H  0.34352549  0.66859895  0.03137150     0.40000
H1906       H  0.33891080  0.63644921  0.06046102     0.34900
C1907       C  0.23742015  0.68612183  0.04614106    -0.26800
C1908       C  0.24877094  0.65162491  0.04326859    -0.14900
C1909       C  0.25811536  0.63374350  0.07449188     0.35700
C1910       C  0.26037201  0.65137269  0.10606233    -0.26300
C1911       C  0.25128028  0.68617534  0.10780347    -0.15500
C1912       C  0.23887582  0.70352450  0.07772707     0.36800
N1913       N  0.22777595  0.73892825  0.07935997    -0.89800
H1914       H  0.22664281  0.69986736  0.02386602     0.17900
H1915       H  0.26841376  0.63760235  0.12947081     0.17900
N1916       N  0.26654886  0.59784875  0.07399075    -0.88800
H1917       H  0.21879872  0.74783857  0.05507070     0.35300
H1918       H  0.25148823  0.75308766  0.08538041     0.40400
H1919       H  0.29349110  0.59407407  0.08362226     0.40000
H1920       H  0.24775596  0.58544365  0.09094708     0.34900
C1921       C  0.70572302  0.32100033  0.05820494    -0.26800
C1922       C  0.73860127  0.32976776  0.03896029    -0.14900
C1923       C  0.77111035  0.30942761  0.04476384     0.35700
C1924       C  0.77198500  0.28648484  0.07306001    -0.26300
C1925       C  0.74031100  0.28161626  0.09437484    -0.15500
C1926       C  0.70635475  0.29741896  0.08576428     0.36800
N1927       N  0.67308135  0.29110758  0.10646817    -0.89800
H1928       H  0.67898607  0.33248283  0.05233677     0.17900
H1929       H  0.79814703  0.27398200  0.07966982     0.17900
N1930       N  0.80387190  0.31310827  0.02303916    -0.88800
H1931       H  0.65009220  0.30417853  0.09613044     0.35300
H1932       H  0.67716068  0.30123496  0.13121970     0.40400
H1933       H  0.80989070  0.28935871  0.01192050     0.40000
H1934       H  0.82634524  0.31954117  0.03877080     0.34900
C1935       C  0.79221388  0.38661871  0.04346936    -0.26800
C1936       C  0.76804729  0.38660209  0.01486499    -0.14900
C1937       C  0.77207303  0.41393489  0.99024028     0.35700
C1938       C  0.80381378  0.43498391  0.99066786    -0.26300
C1939       C  0.83142501  0.43062867  0.01603654    -0.15500
C1940       C  0.82380910  0.40740554  0.04408996     0.36800
N1941       N  0.84764325  0.40345298  0.07355506    -0.89800
H1942       H  0.78754968  0.36971862  0.06554134     0.17900
H1943       H  0.80748355  0.45382435  0.96999389     0.17900
N1944       N  0.74517858  0.41902379  0.96331189    -0.88800
H1945       H  0.85162518  0.42732030  0.08491472     0.35300
H1946       H  0.87315484  0.39273287  0.06548911     0.40400
H1947       H  0.75898922  0.41730387  0.93915108     0.40000
H1948       H  0.73431067  0.44381653  0.96555999     0.34900
C1949       C  0.67405297  0.37560068  0.98460855    -0.26800
C1950       C  0.69986463  0.37792811  0.01171206    -0.14900
C1951       C  0.68922577  0.39802764  0.04118470     0.35700
C1952       C  0.65427084  0.41475443  0.04233248    -0.26300
C1953       C  0.62866606  0.41041973  0.01560110    -0.15500
C1954       C  0.63808547  0.38835635  0.98788138     0.36800
N1955       N  0.61142708  0.37733952  0.96293742    -0.89800
H1956       H  0.68069041  0.36366371  0.96017494     0.17900
H1957       H  0.64743967  0.43147669  0.06389997     0.17900
N1958       N  0.71377540  0.40145837  0.07006276    -0.88800
H1959       H  0.60502438  0.39748938  0.94619829     0.35300
H1960       H  0.58723274  0.36903366  0.97609628     0.40400
H1961       H  0.69983852  0.39259545  0.09253332     0.40000
H1962       H  0.71933805  0.42746079  0.07320675     0.34900
C1963       C  0.33256974  0.94751794  0.77954869    -0.26800
C1964       C  0.34008221  0.96666509  0.74847616    -0.14900
C1965       C  0.31851821  0.95799331  0.71896585     0.35700
C1966       C  0.29525476  0.92887053  0.71977310    -0.26300
C1967       C  0.29019916  0.90914133  0.75030649    -0.15500
C1968       C  0.30826668  0.91938096  0.78057887     0.36800
N1969       N  0.30331337  0.90024722  0.81236570    -0.89800
H1970       H  0.34459671  0.95446842  0.80406062     0.17900
H1971       H  0.28139770  0.92135620  0.69615163     0.17900
N1972       N  0.32039802  0.97848603  0.68781294    -0.88800
H1973       H  0.29300575  0.91690033  0.83143988     0.35300
H1974       H  0.32955701  0.89131798  0.82019223     0.40400
H1975       H  0.32878432  0.96280605  0.66716529     0.40000
H1976       H  0.29344877  0.98760362  0.68265774     0.34900
C1977       C  0.33954594  0.05212858  0.71450778    -0.26800
C1978       C  0.33932430  0.03019759  0.74424267    -0.14900
C1979       C  0.31162973  0.03769155  0.77052386     0.35700
C1980       C  0.29013109  0.06804055  0.76891308    -0.26300
C1981       C  0.29374575  0.09111168  0.74097031    -0.15500
C1982       C  0.31807721  0.08257443  0.71321171     0.36800
N1983       N  0.32250306  0.10568844  0.68424939    -0.89800
H1984       H  0.35682199  0.04642158  0.69196487     0.17900
H1985       H  0.27133556  0.07420072  0.79043774     0.17900
N1986       N  0.30629149  0.01543216  0.80005606    -0.88800
H1987       H  0.31607900  0.09254500  0.66155071     0.35300
H1988       H  0.35065540  0.11277084  0.68258625     0.40400
H1989       H  0.31063527  0.02941379  0.82270934     0.40000
H1990       H  0.27845087  0.00736037  0.80043818     0.34900
C1991       C  0.38832188  0.02867604  0.80416691    -0.26800
C1992       C  0.39002926  0.99988218  0.78263903    -0.14900
C1993       C  0.41236651  0.97191470  0.79473496     0.35700
C1994       C  0.42591340  0.97117892  0.82932014    -0.26300
C1995       C  0.41928341  0.99845433  0.85235060    -0.15500
C1996       C  0.40085867  0.02796352  0.83841000     0.36800
N1997       N  0.39357046  0.05812161  0.85806828    -0.89800
H1998       H  0.37604426  0.05239533  0.79504398     0.17900
H1999       H  0.44139105  0.94888923  0.83819482     0.17900
N2000       N  0.41982640  0.94333941  0.77259687    -0.88800
H2001       H  0.41914219  0.06941245  0.86321115     0.35300
H2002       H  0.37874065  0.05168411  0.88087710     0.40400
H2003       H  0.40960598  0.92128647  0.78501897     0.40000
H2004       H  0.44885221  0.94067065  0.76982317     0.34900
C2005       C  0.40325434  0.96827487  0.69670391    -0.26800
C2006       C  0.39764665  0.99758275  0.71734733    -0.14900
C2007       C  0.42208178  0.02564895  0.70967834     0.35700
C2008       C  0.44484028  0.02623480  0.67881092    -0.26300
C2009       C  0.44599511  0.99840764  0.65585387    -0.15500
C2010       C  0.42663435  0.96839375  0.66670762     0.36800
N2011       N  0.43051335  0.93746148  0.64720400    -0.89800
H2012       H  0.38925928  0.94463286  0.70340609     0.17900
H2013       H  0.46050565  0.04910487  0.67224248     0.17900
N2014       N  0.42282501  0.05439914  0.73246450    -0.88800
H2015       H  0.40389088  0.93001317  0.63941806     0.35300
H2016       H  0.44102558  0.91839428  0.66375789     0.40400
H2017       H  0.41601967  0.07637843  0.71807261     0.40000
H2018       H  0.45021422  0.05706420  0.74117858     0.34900
C2019       C  0.42708043  0.75402179  0.17926425    -0.26800
C2020       C  0.40224776  0.78123848  0.17209569    -0.14900
C2021       C  0.41295298  0.80507290  0.14606841     0.35700
C2022       C  0.44609929  0.79963861  0.12640224    -0.26300
C2023       C  0.46747972  0.76879833  0.12906979    -0.15500
C2024       C  0.45887397  0.74742429  0.15827908     0.36800
N2025       N  0.48118701  0.71778472  0.16592243    -0.89800
H2026       H  0.42062361  0.73623469  0.20032190     0.17900
H2027       H  0.45380954  0.81963682  0.10816396     0.17900
N2028       N  0.38995826  0.83407238  0.13771365    -0.88800
H2029       H  0.49150323  0.72026624  0.19111534     0.35300
H2030       H  0.46403663  0.69623540  0.16573089     0.40400
H2031       H  0.38687410  0.84903204  0.15999814     0.40000
H2032       H  0.36359129  0.82533879  0.13058333     0.34900
C2033       C  0.45988805  0.67171488  0.06816161    -0.26800
C2034       C  0.49072114  0.65993850  0.04833895    -0.14900
C2035       C  0.52052012  0.68288440  0.04186580     0.35700
C2036       C  0.52057146  0.71488539  0.05785724    -0.26300
C2037       C  0.49216384  0.72528426  0.08160090    -0.15500
C2038       C  0.45970053  0.70422167  0.08391371     0.36800
N2039       N  0.42570145  0.71575527  0.10029851    -0.89800
H2040       H  0.43555611  0.65556659  0.07167599     0.17900
H2041       H  0.54471601  0.73106957  0.05337832     0.17900
N2042       N  0.55138254  0.67391670  0.01937517    -0.88800
H2043       H  0.40477264  0.71627620  0.08155669     0.35300
H2044       H  0.41785231  0.69779699  0.11940123     0.40400
H2045       H  0.57596401  0.67512319  0.03373675     0.40000
H2046       H  0.55307886  0.69215000  0.99927398     0.34900
C2047       C  0.53789678  0.80395037  0.06522338    -0.26800
C2048       C  0.50370043  0.78723977  0.07248845    -0.14900
C2049       C  0.47336964  0.79592874  0.05005150     0.35700
C2050       C  0.47525310  0.82501269  0.02784881    -0.26300
C2051       C  0.50753378  0.84507696  0.02567989    -0.15500
C2052       C  0.54011769  0.83240516  0.04254562     0.36800
N2053       N  0.57611372  0.84783429  0.03719721    -0.89800
H2054       H  0.56335284  0.79564183  0.07767117     0.17900
H2055       H  0.45031295  0.83329825  0.01435069     0.17900
N2056       N  0.43946956  0.77659786  0.05134392    -0.88800
H2057       H  0.57636428  0.87215709  0.04807897     0.35300
H2058       H  0.58152479  0.84988660  0.01039369     0.40400
H2059       H  0.43491561  0.76701730  0.02644639     0.40000
H2060       H  0.41725770  0.79311924  0.05753927     0.34900
C2061       C  0.69841545  0.91135567  0.97489256    -0.26800
C2062       C  0.70743392  0.88918722  0.00291361    -0.14900
C2063       C  0.68553227  0.89226024  0.03428435     0.35700
C2064       C  0.65405568  0.91365985  0.03487406    -0.26300
C2065       C  0.64389151  0.93311928  0.00571749    -0.15500
C2066       C  0.66656874  0.93197503  0.97539086     0.36800
N2067       N  0.65677783  0.95044685  0.94432530    -0.89800
H2068       H  0.71529879  0.91115174  0.95117622     0.17900
H2069       H  0.63760944  0.91524642  0.05880520     0.17900
N2070       N  0.69558293  0.87604435  0.06647344    -0.88800
H2071       H  0.65361141  0.93283953  0.92426311     0.35300
H2072       H  0.67895785  0.96661531  0.93748281     0.40400
H2073       H  0.69943833  0.89496969  0.08510752     0.40000
H2074       H  0.67300948  0.86114676  0.07515044     0.34900
C2075       C  0.81597036  0.93457518  0.02073539    -0.26800
C2076       C  0.83824669  0.93584477  0.99042028    -0.14900
C2077       C  0.82563399  0.92032267  0.95992325     0.35700
C2078       C  0.79316799  0.90062442  0.96165888    -0.26300
C2079       C  0.77436087  0.89405227  0.99376312    -0.15500
C2080       C  0.78403341  0.91459973  0.02253543     0.36800
N2081       N  0.76282585  0.91386364  0.05448357    -0.89800
H2082       H  0.82415924  0.94783349  0.04405599     0.17900
H2083       H  0.78308372  0.89032150  0.93759596     0.17900
N2084       N  0.84575431  0.92440890  0.92741175    -0.88800
H2085       H  0.78051550  0.90640759  0.07469637     0.35300
H2086       H  0.75336170  0.93871565  0.05955474     0.40400
H2087       H  0.84362304  0.95013739  0.92013565     0.40000
H2088       H  0.83319904  0.91048028  0.90769044     0.34900
C2089       C  0.78623262  0.84063163  0.04392667    -0.26800
C2090       C  0.75118321  0.84111487  0.02736188    -0.14900
C2091       C  0.72443248  0.81673264  0.03898803     0.35700
C2092       C  0.72837564  0.80135944  0.07188687    -0.26300
C2093       C  0.75998905  0.80784106  0.09176036    -0.15500
C2094       C  0.79038431  0.82552342  0.07652586     0.36800
N2095       N  0.82489766  0.83043257  0.09427897    -0.89800
H2096       H  0.81023387  0.85377200  0.03289051     0.17900
H2097       H  0.70612565  0.78540800  0.08242482     0.17900
N2098       N  0.69193098  0.80972501  0.01904100    -0.88800
H2099       H  0.83727988  0.80656434  0.09891201     0.35300
H2100       H  0.81913960  0.84228107  0.11808857     0.40400
H2101       H  0.69186328  0.78355126  0.01373253     0.40000
H2102       H  0.66807930  0.81519586  0.03414955     0.34900
C2103       C  0.66077116  0.90881882  0.24506100    -0.26800
C2104       C  0.70002409  0.91083218  0.24691916    -0.14900
C2105       C  0.71575455  0.94367796  0.25045494     0.35700
C2106       C  0.69228960  0.97311838  0.25179033    -0.26300
C2107       C  0.65256126  0.97115119  0.24976568    -0.15500
C2108       C  0.63742011  0.93783475  0.24598012     0.36800
N2109       N  0.59784177  0.93318495  0.24272515    -0.89800
H2110       H  0.64759023  0.88409546  0.24261969     0.17900
H2111       H  0.70587612  0.99762559  0.25318673     0.17900
N2112       N  0.75544771  0.94817524  0.25125000    -0.88800
H2113       H  0.58869399  0.91664672  0.26265753     0.35300
H2114       H  0.59304782  0.92135158  0.21890814     0.40400
H2115       H  0.76721101  0.93755555  0.22866189     0.40000
H2116       H  0.76576329  0.93483647  0.27284604     0.34900
C2117       C  0.92981457  0.77628965  0.32223607    -0.26800
C2118       C  0.89526161  0.77723192  0.34013247    -0.14900
C2119       C  0.89471415  0.76938709  0.37612922     0.35700
C2120       C  0.92785895  0.75912683  0.39255870    -0.26300
C2121       C  0.96287311  0.75597999  0.37474921    -0.15500
C2122       C  0.96346667  0.76695986  0.33905596     0.36800
N2123       N  0.99783086  0.77029925  0.31969571    -0.89800
H2124       H  0.93065741  0.78218553  0.29456096     0.17900
H2125       H  0.92607960  0.75317910  0.42011189     0.17900
N2126       N  0.86086192  0.77099357  0.39690648    -0.88800
H2127       H  0.00033410  0.79580048  0.31151617     0.35300
H2128       H  0.99607693  0.75543572  0.29730549     0.40400
H2129       H  0.83823699  0.77983914  0.38238407     0.40000
H2130       H  0.86485552  0.78912246  0.41631528     0.34900
C2131       C  0.83789238  0.60209775  0.26207790    -0.26800
C2132       C  0.79900775  0.60247395  0.25722461    -0.14900
C2133       C  0.78094175  0.57021518  0.25528781     0.35700
C2134       C  0.80250883  0.53942749  0.25705606    -0.26300
C2135       C  0.84213891  0.53932395  0.25985936    -0.15500
C2136       C  0.85901105  0.57190533  0.26421747     0.36800
N2137       N  0.89857829  0.57483798  0.26885029    -0.89800
H2138       H  0.85286133  0.62596211  0.26377070     0.17900
H2139       H  0.78748482  0.51562522  0.25664323     0.17900
N2140       N  0.74104097  0.56725612  0.25239822    -0.88800
H2141       H  0.90302779  0.58735952  0.29235908     0.35300
H2142       H  0.90966244  0.59000765  0.24862710     0.40400
H2143       H  0.72783593  0.59107687  0.25291072     0.40000
H2144       H  0.73122188  0.55399522  0.27448495     0.34900
C2145       C  0.55476572  0.72160378  0.12898448    -0.26800
C2146       C  0.53650754  0.75403179  0.12467006    -0.14900
C2147       C  0.55099628  0.78108222  0.14459999     0.35700
C2148       C  0.58325303  0.77619348  0.16494095    -0.26300
C2149       C  0.60282702  0.74455289  0.16690350    -0.15500
C2150       C  0.58731563  0.71683550  0.14891915     0.36800
N2151       N  0.60377992  0.68335284  0.15011104    -0.89800
H2152       H  0.54350661  0.69875015  0.11778969     0.17900
H2153       H  0.59315855  0.79802638  0.17915121     0.17900
N2154       N  0.53303231  0.81396905  0.14433541    -0.88800
H2155       H  0.60447902  0.67505667  0.17609122     0.35300
H2156       H  0.63109666  0.68471695  0.14005469     0.40400
H2157       H  0.55260365  0.83216193  0.13591384     0.40000
H2158       H  0.52498986  0.81978763  0.16992525     0.34900
C2159       C  0.69028865  0.62180760  0.45272777    -0.26800
C2160       C  0.70976214  0.61560108  0.48447779    -0.14900
C2161       C  0.69726892  0.58678214  0.50452850     0.35700
C2162       C  0.66410235  0.57048153  0.49602578    -0.26300
C2163       C  0.64145361  0.58163446  0.46840672    -0.15500
C2164       C  0.65577882  0.60671409  0.44535373     0.36800
N2165       N  0.63634215  0.61839129  0.41487211    -0.89800
H2166       H  0.70092047  0.63912143  0.43299116     0.17900
H2167       H  0.65504361  0.54927533  0.51244744     0.17900
N2168       N  0.71710404  0.57274863  0.53361199    -0.88800
H2169       H  0.62980476  0.64426376  0.41830801     0.35300
H2170       H  0.61105720  0.60585972  0.41172027     0.40400
H2171       H  0.72292232  0.59165869  0.55161356     0.40000
H2172       H  0.74166827  0.56094330  0.52473518     0.34900
C2173       C  0.79698151  0.60557452  0.52935100    -0.26800
C2174       C  0.77865438  0.61115252  0.49708053    -0.14900
C2175       C  0.79227208  0.59123489  0.46838868     0.35700
C2176       C  0.82693466  0.57434299  0.47059494    -0.26300
C2177       C  0.84671448  0.57292163  0.50182832    -0.15500
C2178       C  0.83044855  0.58724161  0.53183796     0.36800
N2179       N  0.84830721  0.58422741  0.56495018    -0.89800
H2180       H  0.78560344  0.61513871  0.55362564     0.17900
H2181       H  0.83795391  0.56125229  0.44789110     0.17900
N2182       N  0.77160119  0.58649548  0.43709936    -0.88800
H2183       H  0.82972150  0.57221870  0.58242395     0.35300
H2184       H  0.85336199  0.60885348  0.57407574     0.40400
H2185       H  0.76501543  0.60983004  0.42533867     0.40000
H2186       H  0.74705446  0.57326327  0.44324958     0.34900
C2187       C  0.72829267  0.71087740  0.42771933    -0.26800
C2188       C  0.75828851  0.70542005  0.40454224    -0.14900
C2189       C  0.78932896  0.68595295  0.41606665     0.35700
C2190       C  0.78638961  0.66764571  0.44752822    -0.26300
C2191       C  0.75226514  0.66611666  0.46648652    -0.15500
C2192       C  0.72537652  0.69248585  0.45893025     0.36800
N2193       N  0.69380692  0.70034474  0.48100025    -0.89800
H2194       H  0.70566298  0.72814549  0.42082668     0.17900
H2195       H  0.81052131  0.65318357  0.45584413     0.17900
N2196       N  0.82314192  0.68356755  0.39533147    -0.88800
H2197       H  0.70319421  0.70987326  0.50457931     0.35300
H2198       H  0.67730317  0.67882367  0.48519336     0.40400
H2199       H  0.84271905  0.66736793  0.40714765     0.40000
H2200       H  0.83508506  0.70785687  0.39426010     0.34900
C2201       C  0.62040286  0.51228743  0.80823942    -0.26800
C2202       C  0.60306915  0.51374879  0.77542092    -0.14900
C2203       C  0.56445294  0.52386355  0.77534078     0.35700
C2204       C  0.54360921  0.52476061  0.80691223    -0.26300
C2205       C  0.56078108  0.51875870  0.83896118    -0.15500
C2206       C  0.60011097  0.51528543  0.83955818     0.36800
N2207       N  0.61946515  0.51479997  0.87214299    -0.89800
H2208       H  0.65022612  0.50760684  0.80946323     0.17900
H2209       H  0.51380077  0.52998513  0.80625352     0.17900
N2210       N  0.54644445  0.53530481  0.74421194    -0.88800
H2211       H  0.64831511  0.51183337  0.86813049     0.35300
H2212       H  0.61542216  0.53872723  0.88357133     0.40400
H2213       H  0.53757681  0.56058837  0.74781286     0.40000
H2214       H  0.52263895  0.52037495  0.74075864     0.34900
C2215       C  0.57785760  0.48164200  0.70454323    -0.26800
C2216       C  0.60673093  0.50635414  0.70772923    -0.14900
C2217       C  0.61456486  0.52645562  0.67754150     0.35700
C2218       C  0.59040452  0.52589318  0.64905488    -0.26300
C2219       C  0.55954749  0.50354986  0.64708041    -0.15500
C2220       C  0.55445522  0.47999256  0.67490614     0.36800
N2221       N  0.52572427  0.45456614  0.67330474    -0.89800
H2222       H  0.57257986  0.46416188  0.72605564     0.17900
H2223       H  0.59710494  0.54303285  0.62764584     0.17900
N2224       N  0.64817162  0.54605047  0.67406909    -0.88800
H2225       H  0.52508818  0.43975704  0.69616388     0.35300
H2226       H  0.53302955  0.43792800  0.65310751     0.40400
H2227       H  0.64078112  0.57148210  0.66868704     0.40000
H2228       H  0.66356075  0.53683746  0.65269683     0.34900
C2229       C  0.66195699  0.41522587  0.76842378    -0.26800
C2230       C  0.69281469  0.40943878  0.74594080    -0.14900
C2231       C  0.70052557  0.43494136  0.72023581     0.35700
C2232       C  0.67924320  0.46559888  0.71950950    -0.26300
C2233       C  0.65027829  0.47257636  0.74422040    -0.15500
C2234       C  0.63976849  0.44485703  0.76667113     0.36800
N2235       N  0.60508754  0.44478354  0.78597926    -0.89800
H2236       H  0.65345074  0.39583115  0.78718184     0.17900
H2237       H  0.68621488  0.48482120  0.69996008     0.17900
N2238       N  0.72913681  0.43047292  0.69411313    -0.88800
H2239       H  0.61090552  0.44060837  0.81232721     0.35300
H2240       H  0.58905002  0.42427033  0.77755158     0.40400
H2241       H  0.72344892  0.40827732  0.68024029     0.40000
H2242       H  0.75489102  0.42767071  0.70638086     0.34900
C2243       C  0.72134909  0.30149121  0.92938606    -0.26800
C2244       C  0.74917346  0.31345522  0.90651530    -0.14900
C2245       C  0.77771268  0.33433604  0.91920367     0.35700
C2246       C  0.77556908  0.34587384  0.95329466    -0.26300
C2247       C  0.74431113  0.33876131  0.97520874    -0.15500
C2248       C  0.71955617  0.31269781  0.96395520     0.36800
N2249       N  0.69110314  0.29901606  0.98673879    -0.89800
H2250       H  0.70097525  0.28326278  0.92043931     0.17900
H2251       H  0.79880790  0.36088225  0.96195235     0.17900
N2252       N  0.80882318  0.34505555  0.89780877    -0.88800
H2253       H  0.69550978  0.27261612  0.98894401     0.35300
H2254       H  0.66504885  0.30296296  0.97527142     0.40400
H2255       H  0.79860162  0.35704200  0.87536426     0.40000
H2256       H  0.82448865  0.32352482  0.89067873     0.34900
C2257       C  0.60474271  0.23556847  0.87355654    -0.26800
C2258       C  0.60475242  0.23096984  0.83759398    -0.14900
C2259       C  0.57030677  0.23095652  0.81993611     0.35700
C2260       C  0.53665178  0.23556436  0.83889407    -0.26300
C2261       C  0.53625012  0.24136394  0.87525893    -0.15500
C2262       C  0.57143395  0.24087915  0.89238434     0.36800
N2263       N  0.57363088  0.24712454  0.92903996    -0.89800
H2264       H  0.63114437  0.23676147  0.88705443     0.17900
H2265       H  0.51090295  0.23394274  0.82470088     0.17900
N2266       N  0.56833193  0.22666850  0.78282833    -0.88800
H2267       H  0.59045459  0.26855197  0.93261363     0.35300
H2268       H  0.58672302  0.22604983  0.94077729     0.40400
H2269       H  0.59470488  0.22230313  0.77159218     0.40000
H2270       H  0.55815386  0.24955833  0.77213376     0.34900
C2271       C  0.89511101  0.27683370  0.63682474    -0.26800
C2272       C  0.89918883  0.27908858  0.67275332    -0.14900
C2273       C  0.93498215  0.27407755  0.68727615     0.35700
C2274       C  0.96580724  0.26685786  0.66524547    -0.26300
C2275       C  0.96178084  0.26257022  0.62892174    -0.15500
C2276       C  0.92533217  0.26822130  0.61503455     0.36800
N2277       N  0.91855880  0.26441455  0.57857246    -0.89800
H2278       H  0.86755901  0.27973068  0.62562758     0.17900
H2279       H  0.99286878  0.26502691  0.67719651     0.17900
N2280       N  0.94112607  0.27593564  0.72417784    -0.88800
H2281       H  0.90783452  0.28756103  0.56896116     0.35300
H2282       H  0.89816178  0.24565181  0.57561815     0.40400
H2283       H  0.91661738  0.28244933  0.73778589     0.40000
H2284       H  0.95986026  0.29587871  0.72823814     0.34900
C2285       C  0.75694773  0.20410163  0.53638093    -0.26800
C2286       C  0.75762425  0.16802040  0.53355374    -0.14900
C2287       C  0.76611147  0.14869871  0.56423533     0.35700
C2288       C  0.76890750  0.16494321  0.59632465    -0.26300
C2289       C  0.76351575  0.20018754  0.59911031    -0.15500
C2290       C  0.75951058  0.22030840  0.56862941     0.36800
N2291       N  0.75829240  0.25711694  0.56925205    -0.89800
H2292       H  0.75447349  0.22050062  0.51377356     0.17900
H2293       H  0.77322197  0.14951215  0.61960284     0.17900
N2294       N  0.76984463  0.11218300  0.56335776    -0.88800
H2295       H  0.78072557  0.26603128  0.55392757     0.35300
H2296       H  0.76282167  0.26640395  0.59421330     0.40400
H2297       H  0.74996393  0.10151979  0.58048262     0.40000
H2298       H  0.79644958  0.10560909  0.57235674     0.34900
C2299       C  0.93228523  0.97682916  0.68132646    -0.26800
C2300       C  0.93118887  0.00486309  0.65787927    -0.14900
C2301       C  0.90752030  0.03262937  0.66679583     0.35700
C2302       C  0.88525187  0.03158487  0.69706359    -0.26300
C2303       C  0.88734857  0.00488987  0.72225456    -0.15500
C2304       C  0.91067474  0.97648810  0.71292852     0.36800
N2305       N  0.91223251  0.94696926  0.73530527    -0.89800
H2306       H  0.94933334  0.95470876  0.67484129     0.17900
H2307       H  0.86551803  0.05236676  0.69941763     0.17900
N2308       N  0.90570507  0.06269484  0.64511677    -0.88800
H2309       H  0.94013021  0.94258377  0.74191152     0.35300
H2310       H  0.90320508  0.92592780  0.72118047     0.40400
H2311       H  0.91349343  0.08368021  0.65996812     0.40000
H2312       H  0.87789122  0.06639566  0.63776549     0.34900
C2313       C  0.94299500  0.01216899  0.82705010    -0.26800
C2314       C  0.92169057  0.01446447  0.85791071    -0.14900
C2315       C  0.88259930  0.01672288  0.85563569     0.35700
C2316       C  0.86547898  0.01356806  0.82330362    -0.26300
C2317       C  0.88605999  0.00850383  0.79164774    -0.15500
C2318       C  0.92591340  0.01068546  0.79406227     0.36800
N2319       N  0.94955519  0.01353891  0.76377700    -0.89800
H2320       H  0.97326893  0.01196801  0.82847602     0.17900
H2321       H  0.83517354  0.01457453  0.82291326     0.17900
N2322       N  0.85953997  0.02266650  0.88589211    -0.88800
H2323       H  0.96967050  0.99401626  0.76478105     0.35300
H2324       H  0.96352665  0.03691895  0.76472292     0.40400
H2325       H  0.86760120  0.04584418  0.89676759     0.40000
H2326       H  0.86464435  0.00327589  0.90414689     0.34900
C2327       C  0.85903736  0.07065816  0.76009823    -0.26800
C2328       C  0.83855640  0.03983418  0.75802004    -0.14900
C2329       C  0.79867858  0.04286605  0.75992897     0.35700
C2330       C  0.78145755  0.07545711  0.75820372    -0.26300
C2331       C  0.80274104  0.10539260  0.75645209    -0.15500
C2332       C  0.84192395  0.10287215  0.75934084     0.36800
N2333       N  0.86439532  0.13315625  0.76174009    -0.89800
H2334       H  0.88930850  0.06949058  0.76099560     0.17900
H2335       H  0.75117786  0.07729860  0.75813642     0.17900
N2336       N  0.77515664  0.01378772  0.76536153    -0.88800
H2337       H  0.89281840  0.12689542  0.76336597     0.35300
H2338       H  0.85702346  0.14526904  0.78505461     0.40400
H2339       H  0.76033780  0.01703383  0.78882862     0.40000
H2340       H  0.75574629  0.01323484  0.74526937     0.34900
C2341       C  0.71487158  0.57103662  0.75816987    -0.26800
C2342       C  0.69722354  0.60290971  0.75372348    -0.14900
C2343       C  0.65797400  0.60312507  0.74864715     0.35700
C2344       C  0.63888731  0.57249205  0.74296749    -0.26300
C2345       C  0.65624056  0.54002215  0.74522025    -0.15500
C2346       C  0.69465299  0.53992034  0.75586321     0.36800
N2347       N  0.71304538  0.50911514  0.76681189    -0.89800
H2348       H  0.74443663  0.57015188  0.76398615     0.17900
H2349       H  0.60930592  0.57392813  0.73752167     0.17900
N2350       N  0.63709230  0.63468836  0.75007187    -0.88800
H2351       H  0.72109052  0.51197783  0.79270161     0.35300
H2352       H  0.73731105  0.50602722  0.75153907     0.40400
H2353       H  0.63919505  0.64412435  0.77535687     0.40000
H2354       H  0.60863148  0.63065264  0.74583693     0.34900
C2355       C  0.71520360  0.67649479  0.58475089    -0.26800
C2356       C  0.74900971  0.69227261  0.59394242    -0.14900
C2357       C  0.77848159  0.69309068  0.56931631     0.35700
C2358       C  0.77420505  0.67744021  0.53717906    -0.26300
C2359       C  0.74209212  0.65807679  0.52895427    -0.15500
C2360       C  0.71124096  0.65966743  0.55276243     0.36800
N2361       N  0.67555238  0.64557045  0.54479048    -0.89800
H2362       H  0.69146704  0.67682301  0.60268777     0.17900
H2363       H  0.79797172  0.67802324  0.51929437     0.17900
N2364       N  0.81364890  0.70841423  0.57710707    -0.88800
H2365       H  0.65568869  0.66533742  0.54544793     0.35300
H2366       H  0.66826456  0.62799374  0.56445114     0.40400
H2367       H  0.81919888  0.72736689  0.55832773     0.40000
H2368       H  0.83451610  0.68961103  0.57502554     0.34900
C2369       C  0.54118145  0.78327133  0.65894708    -0.26800
C2370       C  0.53903256  0.76191702  0.62939304    -0.14900
C2371       C  0.57413011  0.75153458  0.61402654     0.35700
C2372       C  0.60777287  0.75818780  0.63062064    -0.26300
C2373       C  0.60900781  0.77647448  0.66154246    -0.15500
C2374       C  0.57524610  0.78985330  0.67569172     0.36800
N2375       N  0.57394069  0.80877932  0.70761669    -0.89800
H2376       H  0.51606022  0.79447879  0.66998051     0.17900
H2377       H  0.63360567  0.74829522  0.61922368     0.17900
N2378       N  0.57663282  0.73455566  0.58113426    -0.88800
H2379       H  0.56462261  0.83353482  0.70163724     0.35300
H2380       H  0.60038973  0.81118340  0.71837421     0.40400
H2381       H  0.59352269  0.74914352  0.56422813     0.40000
H2382       H  0.58981880  0.71085989  0.58491622     0.34900
C2383       C  0.79624408  0.93119300  0.72846947    -0.26800
C2384       C  0.79582046  0.90931539  0.75785488    -0.14900
C2385       C  0.81530699  0.92024560  0.78770735     0.35700
C2386       C  0.83691492  0.94985404  0.78637844    -0.26300
C2387       C  0.83779423  0.97243216  0.75730200    -0.15500
C2388       C  0.81635030  0.96242075  0.72802557     0.36800
N2389       N  0.81510551  0.98374021  0.69746298    -0.89800
H2390       H  0.78168203  0.92368721  0.70523907     0.17900
H2391       H  0.85362365  0.95390463  0.80898785     0.17900
N2392       N  0.81346686  0.90235384  0.82056856    -0.88800
H2393       H  0.78713079  0.98977958  0.69252307     0.35300
H2394       H  0.82556315  0.96961467  0.67642479     0.40400
H2395       H  0.82879379  0.87960308  0.81930049     0.40000
H2396       H  0.78548201  0.89743021  0.82710948     0.34900
C2397       C  0.71361470  0.82601534  0.91013589    -0.26800
C2398       C  0.74859429  0.81502487  0.89741311    -0.14900
C2399       C  0.77925391  0.81444150  0.91971434     0.35700
C2400       C  0.77515684  0.82781654  0.95326883    -0.26300
C2401       C  0.74151145  0.84417340  0.96427667    -0.15500
C2402       C  0.70935057  0.83944215  0.94350503     0.36800
N2403       N  0.67213275  0.84643879  0.95615152    -0.89800
H2404       H  0.68906164  0.82408636  0.89403404     0.17900
H2405       H  0.79953324  0.82828220  0.96968607     0.17900
N2406       N  0.81440217  0.80011624  0.90855198    -0.88800
H2407       H  0.65703290  0.82362510  0.95593164     0.35300
H2408       H  0.65928100  0.86338403  0.93869327     0.40400
H2409       H  0.82134470  0.78025711  0.92580113     0.40000
H2410       H  0.83477997  0.81905605  0.91037609     0.34900
C2411       C  0.95088628  0.76940406  0.86522818    -0.26800
C2412       C  0.95963205  0.74362947  0.88965170    -0.14900
C2413       C  0.93245300  0.71653882  0.89312496     0.35700
C2414       C  0.90281141  0.71349143  0.86914133    -0.26300
C2415       C  0.89691768  0.73782873  0.84279552    -0.15500
C2416       C  0.92169787  0.76614301  0.84125654     0.36800
N2417       N  0.91799286  0.79186013  0.81471869    -0.89800
H2418       H  0.96852699  0.79181039  0.86324316     0.17900
H2419       H  0.88282982  0.69295582  0.87265436     0.17900
N2420       N  0.93208636  0.69354138  0.92243857    -0.88800
H2421       H  0.94299170  0.79266704  0.80018743     0.35300
H2422       H  0.91445230  0.81548575  0.82692142     0.40400
H2423       H  0.90675723  0.69678550  0.93607750     0.40000
H2424       H  0.93298982  0.66848789  0.91315177     0.34900
loop_ 
_geom_bond_atom_site_label_1 
_geom_bond_atom_site_label_2 
_geom_bond_distance 
_geom_bond_site_symmetry_2 
_ccdc_geom_bond_type 
Zr1           O2   2.439       .  S
Zr1           O3   2.444       .  S
Zr1           O4   2.404       .  S
Zr1           O7   2.378       .  S
Zr1           O9   2.370       .  S
Zr1          O10   2.380       .  S
Zr1          O11   2.395       .  S
Zr1          O12   2.400       .  S
O2           H58   0.989       .  S
O2           H66   0.990       .  S
O3           C23   1.287       .  A
O4           C25   1.277       .  A
O5          Zr15   2.550       .  S
O5           C24   1.308       .  A
O6          Zr14   2.498       .  S
O6           C25   1.295       .  A
O7           C24   1.275       .  A
O8          Zr16   2.376       .  S
O8           C23   1.275       .  A
O9          Zr14   2.391       .  S
O9          Zr16   2.388       .  S
O10         Zr15   2.388       .  S
O10         Zr16   2.378       .  S
O10          H45   0.966       .  S
O11         Zr14   2.396       .  S
O11         Zr31   2.398       .  S
O11          H48   0.965       .  S
O12         Zr15   2.396       .  S
O12         Zr31   2.403       .  S
Zr13         O38   2.446       .  S
Zr13         O32   2.400       .  S
Zr13         O40   2.395       .  S
Zr13         O28   2.412       .  S
Zr13         O19   2.389       .  S
Zr13         O20   2.401       .  S
Zr13         O21   2.375       .  S
Zr13         O22   2.387       .  S
Zr14         O33   2.436       .  S
Zr14         O26   2.436       .  S
Zr14         O27   2.465       .  S
Zr14         O20   2.416       .  S
Zr14         O21   2.415       .  S
Zr15         O17   2.435       .  S
Zr15         O39   2.437       .  S
Zr15         O41   2.519       .  S
Zr15         O19   2.404       .  S
Zr15         O22   2.424       .  S
Zr16         O42   2.435       .  S
Zr16         O43   2.436       .  S
Zr16         O18   2.438       .  S
Zr16         O19   2.369       .  S
Zr16         O20   2.378       .  S
O17          H54   0.990       .  S
O18          H49   0.990       .  S
O18          H63   0.990       .  S
O20          H46   0.964       .  S
O21         Zr31   2.379       .  S
O22         Zr31   2.382       .  S
O22          H47   0.966       .  S
C23        C2398   1.466       .  S
C24        C2415   1.515       .  S
C25        C2384   1.508       .  S
O26          H62   0.990       .  S
O27          C29   1.289       .  A
O28          C29   1.278       .  A
C29        C2373   1.479       .  S
O30         Zr31   2.439       .  S
O30          H59   0.990       .  S
Zr31         O34   2.435       .  S
Zr31         O35   2.439       .  S
Zr31         O36   2.433       .  S
O32          C37   1.274       .  A
O33          H50   0.990       .  S
O33          H65   0.990       .  S
O34          H51   0.990       .  S
O35          H55   0.990       .  S
O35          H64   0.990       .  S
O36          C37   1.283       .  A
C37        C2356   1.489       .  S
O38          H57   0.990       .  S
O38          H61   0.990       .  S
O39          H53   0.990       .  S
O39          H60   0.990       .  S
O40          C44   1.277       .  A
O41          C44   1.301       .  A
O42          H52   0.990       .  S
O43          H56   0.990       .  S
C44        C2342   1.510       .  S
C67        C2303   1.590       .  S
C67        C2317   1.588       .  S
C67        C2328   1.576       .  S
C67        C2387   1.582   1_545  S
Zr68         O69   2.444       .  S
Zr68         O70   2.417       .  S
Zr68         O71   2.428       .  S
Zr68         O74   2.411       .  S
Zr68         O76   2.378       .  S
Zr68         O77   2.390       .  S
Zr68         O78   2.398       .  S
Zr68         O79   2.393       .  S
O69         H125   0.990       .  S
O69         H133   0.990       .  S
O70          C90   1.278       .  A
O71          C92   1.283       .  A
O72         Zr82   2.465       .  S
O72          C91   1.289       .  A
O73         Zr81   2.451       .  S
O73          C92   1.287       .  A
O74          C91   1.277       .  A
O75         Zr83   2.422       .  S
O75          C90   1.281       .  A
O76         Zr81   2.397       .  S
O76         Zr83   2.385       .  S
O77         Zr82   2.402       .  S
O77         Zr83   2.373       .  S
O77         H112   0.966       .  S
O78         Zr81   2.406       .  S
O78         Zr98   2.375       .  S
O78         H115   0.964       .  S
O79         Zr82   2.398       .  S
O79         Zr98   2.372       .  S
Zr80        O105   2.445       .  S
Zr80         O99   2.450       .  S
Zr80        O107   2.425       .  S
Zr80         O95   2.415       .  S
Zr80         O86   2.398       .  S
Zr80         O87   2.412       .  S
Zr80         O88   2.377       .  S
Zr80         O89   2.379       .  S
Zr81        O100   2.437       .  S
Zr81         O93   2.434       .  S
Zr81         O94   2.456       .  S
Zr81         O87   2.403       .  S
Zr81         O88   2.406       .  S
Zr82         O84   2.435       .  S
Zr82        O106   2.438       .  S
Zr82        O108   2.478       .  S
Zr82         O86   2.390       .  S
Zr82         O89   2.407       .  S
Zr83        O109   2.437       .  S
Zr83        O110   2.435       .  S
Zr83         O85   2.437       .  S
Zr83         O86   2.389       .  S
Zr83         O87   2.398       .  S
O84         H121   0.990       .  S
O85         H116   0.990       .  S
O85         H130   0.990       .  S
O87         H113   0.965       .  S
O88         Zr98   2.388       .  S
O89         Zr98   2.390       .  S
O89         H114   0.966       .  S
C90        C2289   1.466       .  S
C91        C2272   1.469       .  S
C92        C2331   1.482       .  S
O93         H129   0.990       .  S
O94          C96   1.287       .  A
O95          C96   1.277       .  A
C96        C2258   1.470       .  S
O97         Zr98   2.436       .  S
O97         H126   0.990       .  S
Zr98        O101   2.435       .  S
Zr98        O102   2.439       .  S
Zr98        O103   2.370       .  S
O99         C104   1.285       .  A
O100        H117   0.990       .  S
O100        H132   0.991       .  S
O101        H118   0.990       .  S
O102        H122   0.990       .  S
O102        H131   0.990       .  S
O103        C104   1.271       .  A
C104       C2244   1.461       .  S
O105        H124   0.991       .  S
O105        H128   0.991       .  S
O106        H120   0.990       .  S
O106        H127   0.990       .  S
O107        C111   1.284       .  A
O108        C111   1.292       .  A
O109        H119   0.990       .  S
O110        H123   0.990       .  S
C111       C2230   1.514       .  S
C134       C2202   1.571       .  S
C134       C2216   1.578       .  S
C134       C2233   1.574       .  S
C134       C2345   1.587       .  S
C135       C2160   1.575       .  S
C135       C2174   1.579       .  S
C135       C2191   1.566       .  S
C135       C2359   1.564       .  S
Zr136       O137   2.449       .  S
Zr136       O138   2.441       .  S
Zr136       O139   2.422       .  S
Zr136       O142   2.395       .  S
Zr136       O144   2.378       .  S
Zr136       O145   2.382       .  S
Zr136       O146   2.414       .  S
Zr136       O147   2.409       .  S
O137        H193   0.991       .  S
O137        H201   0.991       .  S
O138        C158   1.283       .  A
O139        C160   1.280       .  A
O140       Zr150   2.520       .  S
O140        C159   1.301       .  A
O141       Zr149   2.516       .  S
O141        C160   1.298       .  A
O142        C159   1.276       .  A
O143       Zr151   2.372       .  S
O143        C158   1.271       .  A
O144       Zr149   2.412       .  S
O144       Zr151   2.397       .  S
O145       Zr150   2.398       .  S
O145       Zr151   2.389       .  S
O145        H180   0.966       .  S
O146       Zr149   2.409       .  S
O146       Zr166   2.384       .  S
O146        H183   0.963       .  S
O147       Zr150   2.400       .  S
O147       Zr166   2.406       .  S
Zr148       O173   2.442       .  S
Zr148       O167   2.391       .  S
Zr148       O175   2.413       .  S
Zr148       O163   2.408       .  S
Zr148       O154   2.385       .  S
Zr148       O155   2.394       .  S
Zr148       O156   2.380       .  S
Zr148       O157   2.386       .  S
Zr149       O168   2.436       .  S
Zr149       O161   2.435       .  S
Zr149       O162   2.499       .  S
Zr149       O155   2.416       .  S
Zr149       O156   2.407       .  S
Zr150       O152   2.436       .  S
Zr150       O174   2.435       .  S
Zr150       O176   2.510       .  S
Zr150       O154   2.403       .  S
Zr150       O157   2.411       .  S
Zr151       O177   2.435       .  S
Zr151       O178   2.437       .  S
Zr151       O153   2.436       .  S
Zr151       O154   2.379       .  S
Zr151       O155   2.373       .  S
O152        H189   0.990       .  S
O153        H184   0.990       .  S
O153        H198   0.990       .  S
O155        H181   0.966       .  S
O156       Zr166   2.373       .  S
O157       Zr166   2.378       .  S
O157        H182   0.966       .  S
C158       C2093   1.458       .  S
C159       C2149   1.521       .  S
C160       C2104   1.511       .  S
O161        H197   0.990       .  S
O162        C164   1.297       .  A
O163        C164   1.277       .  A
C164       C2118   1.488       .  S
O165       Zr166   2.436       .  S
O165        H194   0.990       .  S
Zr166       O169   2.436       .  S
Zr166       O170   2.437       .  S
Zr166       O171   2.429       .  S
O167        C172   1.275       .  A
O168        H185   0.990       .  S
O168        H200   0.990       .  S
O169        H186   0.990       .  S
O170        H190   0.990       .  S
O170        H199   0.989       .  S
O171        C172   1.283       .  A
C172       C2188   1.480       .  S
O173        H192   0.990       .  S
O173        H196   0.991       .  S
O174        H188   0.990       .  S
O174        H195   0.990       .  S
O175        C179   1.283       .  A
O176        C179   1.299       .  A
O177        H187   0.990       .  S
O178        H191   0.990       .  S
C179       C2132   1.515       .  S
C202       C2062   1.552   1_556  S
C202       C2079   1.558       .  S
C202       C2090   1.546   1_556  S
C202       C2401   1.555       .  S
C203       C2023   1.581       .  S
C203       C2037   1.570       .  S
C203       C2048   1.583       .  S
C203       C2146   1.595       .  S
C204       C1964   1.582       .  S
C204       C1978   1.587   1_565  S
C204       C1992   1.576       .  S
C204       C2006   1.590       .  S
C205       C1922   1.557       .  S
C205       C1936   1.566       .  S
C205       C1950   1.556       .  S
C205       C2247   1.565   1_554  S
C206       C1869   1.558   1_554  S
C206       C1880   1.561       .  S
C206       C1894   1.560   1_554  S
C206       C1908   1.550       .  S
C207       C1813   1.573       .  S
C207       C1824   1.595       .  S
C207       C1838   1.606       .  S
C207       C1855   1.601       .  S
C208       C1771   1.584       .  S
C208       C1785   1.577       .  S
C208       C1796   1.587       .  S
C208       C2286   1.561       .  S
C209       C1729   1.570   1_655  S
C209       C1740   1.570       .  S
C209       C1754   1.555       .  S
C209       C2121   1.581       .  S
Zr210       O211   2.441       .  S
Zr210       O212   2.444       .  S
Zr210       O213   2.412       .  S
Zr210       O216   2.395       .  S
Zr210       O218   2.370       .  S
Zr210       O219   2.383       .  S
Zr210       O220   2.400       .  S
Zr210       O221   2.400       .  S
O211        H267   0.989       .  S
O211        H275   0.990       .  S
O212        C232   1.284       .  A
O213        C234   1.279       .  A
O214       Zr224   2.496       .  S
O214        C233   1.296       .  A
O215       Zr223   2.500       .  S
O215        C234   1.295       .  A
O216        C233   1.278       .  A
O217       Zr225   2.394       .  S
O217        C232   1.276       .  A
O218       Zr223   2.401       .  S
O218       Zr225   2.386       .  S
O219       Zr224   2.411       .  S
O219       Zr225   2.381       .  S
O219        H254   0.966       .  S
O220       Zr223   2.403       .  S
O220       Zr240   2.397       .  S
O220        H257   0.965       .  S
O221       Zr224   2.401       .  S
O221       Zr240   2.394       .  S
Zr222       O247   2.451       .  S
Zr222       O241   2.421       .  S
Zr222       O249   2.427       .  S
Zr222       O237   2.405       .  S
Zr222       O228   2.393       .  S
Zr222       O229   2.399       .  S
Zr222       O230   2.380       .  S
Zr222       O231   2.378       .  S
Zr223       O242   2.436       .  S
Zr223       O235   2.435       .  S
Zr223       O236   2.468       .  S
Zr223       O229   2.416       .  S
Zr223       O230   2.403       .  S
Zr224       O226   2.437       .  S
Zr224       O248   2.436       .  S
Zr224       O250   2.503       .  S
Zr224       O228   2.402       .  S
Zr224       O231   2.401       .  S
Zr225       O251   2.436       .  S
Zr225       O252   2.436       .  S
Zr225       O227   2.437       .  S
Zr225       O228   2.389       .  S
Zr225       O229   2.384       .  S
O226        H263   0.990       .  S
O227        H258   0.990       .  S
O227        H272   0.990       .  S
O229        H255   0.966       .  S
O230       Zr240   2.373       .  S
O231       Zr240   2.383       .  S
O231        H256   0.966       .  S
C232       C1911   1.471       .  S
C233       C2020   1.499       .  S
C234       C1698   1.512       .  S
O235        H271   0.990       .  S
O236        C238   1.290       .  A
O237        C238   1.281       .  A
C238       C1726   1.482       .  S
O239       Zr240   2.439       .  S
O239        H268   0.990       .  S
Zr240       O243   2.437       .  S
Zr240       O244   2.439       .  S
Zr240       O245   2.424       .  S
O241        C246   1.282       .  A
O242        H259   0.990       .  S
O242        H274   0.990       .  S
O243        H260   0.990       .  S
O244        H264   0.990       .  S
O244        H273   0.990       .  S
O245        C246   1.282       .  A
C246       C1684   1.470       .  S
O247        H266   0.990       .  S
O247        H270   0.990       .  S
O248        H262   0.990       .  S
O248        H269   0.990       .  S
O249        C253   1.284       .  A
O250        C253   1.298       .  A
O251        H261   0.990       .  S
O252        H265   0.990       .  S
C253       C1712   1.518       .  S
C276       C1642   1.572       .  S
C276       C1656   1.578       .  S
C276       C1673   1.593       .  S
C276       C1687   1.584       .  S
C277       C1600   1.592       .  S
C277       C1614   1.605       .  S
C277       C1628   1.591       .  S
C277       C2135   1.591       .  S
Zr278       O279   2.442       .  S
Zr278       O280   2.420       .  S
Zr278       O281   2.416       .  S
Zr278       O284   2.390       .  S
Zr278       O286   2.383       .  S
Zr278       O287   2.379       .  S
Zr278       O288   2.395       .  S
Zr278       O289   2.398       .  S
O279        H335   0.990       .  S
O279        H343   0.990       .  S
O280        C300   1.280       .  A
O281        C302   1.281       .  A
O282       Zr292   2.440       .  S
O282        C301   1.286       .  A
O283       Zr291   2.470       .  S
O283        C302   1.293       .  A
O284        C301   1.277       .  A
O285       Zr293   2.431       .  S
O285        C300   1.284       .  A
O286       Zr291   2.409       .  S
O286       Zr293   2.382       .  S
O287       Zr292   2.372       .  S
O287       Zr293   2.362       .  S
O287        H322   0.963       .  S
O288       Zr291   2.399       .  S
O288       Zr308   2.386       .  S
O288        H325   0.966       .  S
O289       Zr292   2.398       .  S
O289       Zr308   2.372       .  S
Zr290       O315   2.443       .  S
Zr290       O309   2.421       .  S
Zr290       O317   2.418       .  S
Zr290       O305   2.389       .  S
Zr290       O296   2.395       .  S
Zr290       O297   2.402       .  S
Zr290       O298   2.382       .  S
Zr290       O299   2.377       .  S
Zr291       O310   2.435       .  S
Zr291       O303   2.433       .  S
Zr291       O304   2.497       .  S
Zr291       O297   2.389       .  S
Zr291       O298   2.387       .  S
Zr292       O294   2.436       .  S
Zr292       O316   2.438       .  S
Zr292       O318   2.453       .  S
Zr292       O296   2.387       .  S
Zr292       O299   2.382       .  S
Zr293       O319   2.435       .  S
Zr293       O320   2.436       .  S
Zr293       O295   2.436       .  S
Zr293       O296   2.404       .  S
Zr293       O297   2.384       .  S
O294        H331   0.990       .  S
O295        H326   0.991       .  S
O295        H340   0.990       .  S
O297        H323   0.959       .  S
O298       Zr308   2.387       .  S
O299       Zr308   2.385       .  S
O299        H324   0.966       .  S
C300       C1586   1.465       .  S
C301       C1925   1.454       .  S
C302       C1631   1.492       .  S
O303        H339   0.990       .  S
O304        C306   1.297       .  A
O305        C306   1.274       .  A
C306       C1768   1.479       .  S
O307       Zr308   2.436       .  S
O307        H336   0.990       .  S
Zr308       O311   2.436       .  S
Zr308       O312   2.438       .  S
Zr308       O313   2.388       .  S
O309        C314   1.281       .  A
O310        H327   0.990       .  S
O310        H342   0.990       .  S
O311        H328   0.990       .  S
O312        H332   0.990       .  S
O312        H341   0.989       .  S
O313        C314   1.276       .  A
C314       C1572   1.455       .  S
O315        H334   0.990       .  S
O315        H338   0.990       .  S
O316        H330   0.990       .  S
O316        H337   0.990       .  S
O317        C321   1.280       .  A
O318        C321   1.289       .  A
O319        H329   0.990       .  S
O320        H333   0.990       .  S
C321       C1558   1.495       .  S
C344       C1530   1.594       .  S
C344       C1547   1.579       .  S
C344       C1561   1.582       .  S
C344       C2107   1.585   1_545  S
C345       C1488   1.568       .  S
C345       C1505   1.569       .  S
C345       C1516   1.581       .  S
C345       C2261   1.571       .  S
Zr346       O347   2.445       .  S
Zr346       O348   2.408       .  S
Zr346       O349   2.451       .  S
Zr346       O352   2.415       .  S
Zr346       O354   2.380       .  S
Zr346       O355   2.389       .  S
Zr346       O356   2.398       .  S
Zr346       O357   2.395       .  S
O347        H403   0.990       .  S
O347        H411   0.991       .  S
O348        C368   1.279       .  A
O349        C370   1.284       .  A
O350       Zr360   2.493       .  S
O350        C369   1.295       .  A
O351       Zr359   2.493       .  S
O351        C370   1.295       .  A
O352        C369   1.282       .  A
O353       Zr361   2.385       .  S
O353        C368   1.273       .  A
O354       Zr359   2.400       .  S
O354       Zr361   2.392       .  S
O355       Zr360   2.402       .  S
O355       Zr361   2.389       .  S
O355        H390   0.966       .  S
O356       Zr359   2.411       .  S
O356       Zr376   2.374       .  S
O356        H393   0.962       .  S
O357       Zr360   2.396       .  S
O357       Zr376   2.379       .  S
Zr358       O383   2.444       .  S
Zr358       O377   2.419       .  S
Zr358       O385   2.433       .  S
Zr358       O373   2.419       .  S
Zr358       O364   2.390       .  S
Zr358       O365   2.406       .  S
Zr358       O366   2.380       .  S
Zr358       O367   2.392       .  S
Zr359       O378   2.436       .  S
Zr359       O371   2.434       .  S
Zr359       O372   2.484       .  S
Zr359       O365   2.415       .  S
Zr359       O366   2.406       .  S
Zr360       O362   2.436       .  S
Zr360       O384   2.436       .  S
Zr360       O386   2.482       .  S
Zr360       O364   2.398       .  S
Zr360       O367   2.410       .  S
Zr361       O387   2.436       .  S
Zr361       O388   2.437       .  S
Zr361       O363   2.438       .  S
Zr361       O364   2.377       .  S
Zr361       O365   2.382       .  S
O362        H399   0.990       .  S
O363        H394   0.990       .  S
O363        H408   0.990       .  S
O365        H391   0.965       .  S
O366       Zr376   2.380       .  S
O367       Zr376   2.385       .  S
O367        H392   0.966       .  S
C368       C1460   1.451       .  S
C369       C1446   1.504       .  S
C370       C1827   1.499       .  S
O371        H407   0.990       .  S
O372        C374   1.294       .  A
O373        C374   1.281       .  A
C374       C1519   1.497       .  S
O375       Zr376   2.434       .  S
O375        H404   0.990       .  S
Zr376       O379   2.434       .  S
Zr376       O380   2.438       .  S
Zr376       O381   2.380       .  S
O377        C382   1.279       .  A
O378        H395   0.990       .  S
O378        H410   0.990       .  S
O379        H396   0.990       .  S
O380        H400   0.990       .  S
O380        H409   0.989       .  S
O381        C382   1.274       .  A
C382       C1477   1.458       .  S
O383        H402   0.991       .  S
O383        H406   0.991       .  S
O384        H398   0.990       .  S
O384        H405   0.990       .  S
O385        C389   1.283       .  A
O386        C389   1.293       .  A
O387        H397   0.990       .  S
O388        H401   0.990       .  S
C389       C1981   1.490       .  S
C412       C1418   1.568       .  S
C412       C1432   1.554       .  S
C412       C1449   1.590   1_655  S
C412       C2275   1.573       .  S
C413       C1376   1.564       .  S
C413       C1390   1.570   1_655  S
C413       C1404   1.564       .  S
C413       C1589   1.556       .  S
Zr414       O415   2.445       .  S
Zr414       O416   2.404       .  S
Zr414       O417   2.428       .  S
Zr414       O420   2.403       .  S
Zr414       O422   2.378   1_545  S
Zr414       O423   2.391   1_554  S
Zr414       O424   2.396   1_445  S
Zr414       O425   2.385   1_455  S
O415        H471   0.990       .  S
O415        H479   0.991       .  S
O416        C436   1.277       .  A
O417        C438   1.281   1_545  A
O418       Zr428   2.445       .  S
O418        C437   1.286   1_556  A
O419       Zr427   2.493       .  S
O419        C438   1.296       .  A
O420        C437   1.280   1_455  A
O421       Zr429   2.419   1_545  S
O421        C436   1.281   1_556  A
O422       Zr427   2.406       .  S
O422       Zr429   2.383   1_554  S
O423       Zr428   2.394   1_455  S
O423       Zr429   2.380   1_545  S
O423        H458   0.965       .  S
O424       Zr427   2.407   1_655  S
O424       Zr444   2.386   1_565  S
O424        H461   0.965       .  S
O425       Zr428   2.394   1_554  S
O425       Zr444   2.360       .  S
Zr426       O451   2.439       .  S
Zr426       O445   2.412       .  S
Zr426       O453   2.429       .  S
Zr426       O441   2.409       .  S
Zr426       O432   2.390   1_665  S
Zr426       O433   2.405   1_655  S
Zr426       O434   2.384   1_556  S
Zr426       O435   2.374   1_565  S
Zr427       O446   2.436   1_455  S
Zr427       O439   2.435       .  S
Zr427       O440   2.492       .  S
Zr427       O433   2.409   1_554  S
Zr427       O434   2.398   1_455  S
Zr428       O430   2.435       .  S
Zr428       O452   2.437   1_655  S
Zr428       O454   2.461       .  S
Zr428       O432   2.388   1_655  S
Zr428       O435   2.388       .  S
Zr429       O455   2.437   1_565  S
Zr429       O456   2.436       .  S
Zr429       O431   2.437       .  S
Zr429       O432   2.398   1_565  S
Zr429       O433   2.392       .  S
O430        H467   0.990       .  S
O431        H462   0.990       .  S
O431        H476   0.990   1_556  S
O433        H459   0.965       .  S
O434       Zr444   2.379   1_565  S
O435       Zr444   2.384   1_556  S
O435        H460   0.967       .  S
C436       C1348   1.483       .  S
C437       C1407   1.471       .  S
C438       C1362   1.508       .  S
O439        H475   0.990       .  S
O440        C442   1.296   1_454  A
O441        C442   1.279       .  A
C442       C1334   1.483       .  S
O443       Zr444   2.435       .  S
O443        H472   0.990       .  S
Zr444       O447   2.434   1_545  S
Zr444       O448   2.438       .  S
Zr444       O449   2.379   1_545  S
O445        C450   1.280       .  A
O446        H463   0.990       .  S
O446        H478   0.990   1_655  S
O447        H464   0.990       .  S
O448        H468   0.990       .  S
O448        H477   0.990       .  S
O449        C450   1.275   1_554  A
C450       C2076   1.465       .  S
O451        H470   0.989       .  S
O451        H474   0.990       .  S
O452        H466   0.990       .  S
O452        H473   0.990       .  S
O453        C457   1.283   1_565  A
O454        C457   1.288       .  A
O455        H465   0.990       .  S
O456        H469   0.990       .  S
C457       C2314   1.484       .  S
Zr480       O481   2.442       .  S
Zr480       O482   2.422       .  S
Zr480       O483   2.435       .  S
Zr480       O486   2.404       .  S
Zr480       O488   2.378       .  S
Zr480       O489   2.387       .  S
Zr480       O490   2.399       .  S
Zr480       O491   2.393       .  S
O481        H537   0.989       .  S
O481        H545   0.990       .  S
O482        C502   1.281       .  A
O483        C504   1.283       .  A
O484       Zr494   2.441       .  S
O484        C503   1.285       .  A
O485       Zr493   2.510       .  S
O485        C504   1.300       .  A
O486        C503   1.280       .  A
O487       Zr495   2.429       .  S
O487        C502   1.284       .  A
O488       Zr493   2.407       .  S
O488       Zr495   2.380       .  S
O489       Zr494   2.404       .  S
O489       Zr495   2.378       .  S
O489        H524   0.966       .  S
O490       Zr493   2.410       .  S
O490       Zr510   2.395       .  S
O490        H527   0.966       .  S
O491       Zr494   2.401       .  S
O491       Zr510   2.367       .  S
Zr492       O517   2.440       .  S
Zr492       O511   2.425       .  S
Zr492       O519   2.402       .  S
Zr492       O507   2.346       .  S
Zr492       O498   2.385       .  S
Zr492       O499   2.403       .  S
Zr492       O500   2.382       .  S
Zr492       O501   2.365       .  S
Zr493       O512   2.436       .  S
Zr493       O505   2.436       .  S
Zr493       O506   2.524       .  S
Zr493       O499   2.405       .  S
Zr493       O500   2.390       .  S
Zr494       O496   2.435       .  S
Zr494       O518   2.435       .  S
Zr494       O520   2.483       .  S
Zr494       O498   2.388       .  S
Zr494       O501   2.381       .  S
Zr495       O521   2.436       .  S
Zr495       O522   2.436       .  S
Zr495       O497   2.437       .  S
Zr495       O498   2.410       .  S
Zr495       O499   2.397       .  S
O496        H533   0.990       .  S
O497        H528   0.990       .  S
O497        H542   0.990       .  S
O499        H525   0.966       .  S
O500       Zr510   2.376       .  S
O501       Zr510   2.375       .  S
O501        H526   0.966       .  S
C502       C1393   1.479       .  S
C503       C1320   1.458       .  S
C504       C1309   1.528       .  S
O505        H541   0.990       .  S
O506        C508   1.302       .  A
O507        C508   1.270       .  A
C508       C1278   1.490       .  S
O509       Zr510   2.437       .  S
O509        H538   0.990       .  S
Zr510       O513   2.435       .  S
Zr510       O514   2.437       .  S
Zr510       O515   2.396       .  S
O511        C516   1.281       .  A
O512        H529   0.990       .  S
O512        H544   0.990       .  S
O513        H530   0.990       .  S
O514        H534   0.990       .  S
O514        H543   0.990       .  S
O515        C516   1.277       .  A
C516       C1292   1.454       .  S
O517        H536   0.990       .  S
O517        H540   0.990       .  S
O518        H532   0.990       .  S
O518        H539   0.990       .  S
O519        C523   1.277       .  A
O520        C523   1.292       .  A
O521        H531   0.990       .  S
O522        H535   0.990       .  S
C523       C1267   1.482       .  S
C546       C1253   1.589       .  S
C546       C1306   1.590       .  S
C546       C1365   1.592   1_545  S
C546       C1715   1.591   1_545  S
Zr547       O548   2.442       .  S
Zr547       O549   2.442       .  S
Zr547       O550   2.427       .  S
Zr547       O553   2.412       .  S
Zr547       O555   2.376   1_655  S
Zr547       O556   2.389       .  S
Zr547       O557   2.406   1_545  S
Zr547       O558   2.400       .  S
O548        H604   0.990       .  S
O548        H612   0.991       .  S
O549        C569   1.284       .  A
O550        C571   1.284       .  A
O551       Zr561   2.471       .  S
O551        C570   1.288       .  A
O552       Zr560   2.501   1_655  S
O552        C571   1.296   1_565  A
O553        C570   1.274       .  A
O554       Zr562   2.378       .  S
O554        C569   1.274   1_455  A
O555       Zr560   2.401   1_545  S
O555       Zr562   2.392       .  S
O556       Zr561   2.397       .  S
O556       Zr562   2.374   1_655  S
O556        H591   0.966       .  S
O557       Zr560   2.398   1_655  S
O557       Zr577   2.387       .  S
O557        H594   0.964       .  S
O558       Zr561   2.393       .  S
O558       Zr577   2.385   1_545  S
Zr559       O584   2.444       .  S
Zr559       O578   2.413       .  S
Zr559       O586   2.449       .  S
Zr559       O574   2.418       .  S
Zr559       O565   2.392   1_565  S
Zr559       O566   2.403       .  S
Zr559       O567   2.388       .  S
Zr559       O568   2.381   1_455  S
Zr560       O579   2.436       .  S
Zr560       O572   2.435   1_565  S
Zr560       O573   2.469       .  S
Zr560       O566   2.417       .  S
Zr560       O567   2.409       .  S
Zr561       O563   2.435   1_545  S
Zr561       O585   2.436       .  S
Zr561       O587   2.458   1_655  S
Zr561       O565   2.404   1_655  S
Zr561       O568   2.401   1_545  S
Zr562       O588   2.436       .  S
Zr562       O589   2.435       .  S
Zr562       O564   2.439       .  S
Zr562       O565   2.382       .  S
Zr562       O566   2.372   1_545  S
O563        H600   0.990   1_565  S
O564        H595   0.990       .  S
O564        H609   0.990       .  S
O566        H592   0.963       .  S
O567       Zr577   2.383   1_455  S
O568       Zr577   2.384       .  S
O568        H593   0.966       .  S
C569       C1435   1.480       .  S
C570       C1782   1.474       .  S
C571       C2300   1.513       .  S
O572        H608   0.990       .  S
O573        C575   1.291       .  A
O574        C575   1.281       .  A
C575       C1659   1.473       .  S
O576       Zr577   2.436       .  S
O576        H605   0.990       .  S
Zr577       O580   2.435       .  S
Zr577       O581   2.441       .  S
Zr577       O582   2.393       .  S
O578        C583   1.278   1_455  A
O579        H596   0.990       .  S
O579        H611   0.990       .  S
O580        H597   0.990       .  S
O581        H601   0.990       .  S
O581        H610   0.990       .  S
O582        C583   1.276       .  A
C583       C1757   1.462       .  S
O584        H603   0.991       .  S
O584        H607   0.990       .  S
O585        H599   0.990       .  S
O585        H606   0.990       .  S
O586        C590   1.285   1_565  A
O587        C590   1.289       .  A
O588        H598   0.990       .  S
O589        H602   0.990       .  S
C590       C1250   1.493       .  S
C613       C1236   1.569       .  S
C613       C1323   1.564       .  S
C613       C1351   1.559       .  S
C613       C1474   1.555   1_554  S
Zr614       O615   2.438       .  S
Zr614       O616   2.407       .  S
Zr614       O617   2.426       .  S
Zr614       O620   2.392       .  S
Zr614       O622   2.372   1_545  S
Zr614       O623   2.380   1_556  S
Zr614       O624   2.403       .  S
Zr614       O625   2.381       .  S
O615        H671   0.988       .  S
O615        H679   0.990       .  S
O616        C636   1.277   1_556  A
O617        C638   1.282   1_545  A
O618       Zr628   2.495       .  S
O618        C637   1.293   1_554  A
O619       Zr627   2.501       .  S
O619        C638   1.298       .  A
O620        C637   1.277       .  A
O621       Zr629   2.416   1_545  S
O621        C636   1.279       .  A
O622       Zr627   2.415       .  S
O622       Zr629   2.385   1_556  S
O623       Zr628   2.405       .  S
O623       Zr629   2.386   1_545  S
O623        H658   0.966       .  S
O624       Zr627   2.413   1_545  S
O624       Zr644   2.389       .  S
O624        H661   0.965       .  S
O625       Zr628   2.386   1_556  S
O625       Zr644   2.361       .  S
Zr626       O651   2.447       .  S
Zr626       O645   2.414       .  S
Zr626       O653   2.390       .  S
Zr626       O641   2.383       .  S
Zr626       O632   2.388   1_565  S
Zr626       O633   2.393       .  S
Zr626       O634   2.374   1_554  S
Zr626       O635   2.379   1_565  S
Zr627       O646   2.435       .  S
Zr627       O639   2.434       .  S
Zr627       O640   2.522       .  S
Zr627       O633   2.407   1_556  S
Zr627       O634   2.391       .  S
Zr628       O630   2.436       .  S
Zr628       O652   2.437       .  S
Zr628       O654   2.478       .  S
Zr628       O632   2.401       .  S
Zr628       O635   2.397       .  S
Zr629       O655   2.436   1_565  S
Zr629       O656   2.437       .  S
Zr629       O631   2.437       .  S
Zr629       O632   2.401   1_565  S
Zr629       O633   2.396       .  S
O630        H667   0.990       .  S
O631        H662   0.990       .  S
O631        H676   0.990       .  S
O633        H659   0.966       .  S
O634       Zr644   2.380   1_565  S
O635       Zr644   2.382   1_554  S
O635        H660   0.966       .  S
C636       C1239   1.475   1_554  S
C637       C1502   1.496       .  S
C638       C1995   1.517       .  S
O639        H675   0.990       .  S
O640        C642   1.302   1_556  A
O641        C642   1.274       .  A
C642       C2051   1.501       .  S
O643       Zr644   2.435       .  S
O643        H672   0.990       .  S
Zr644       O647   2.435   1_545  S
Zr644       O648   2.438       .  S
Zr644       O649   2.390   1_545  S
O645        C650   1.282       .  A
O646        H663   0.990       .  S
O646        H678   0.990       .  S
O647        H664   0.990       .  S
O648        H668   0.990       .  S
O648        H677   0.990       .  S
O649        C650   1.276   1_556  A
C650       C2065   1.472       .  S
O651        H670   0.990       .  S
O651        H674   0.990       .  S
O652        H666   0.990       .  S
O652        H673   0.990       .  S
O653        C657   1.277   1_565  A
O654        C657   1.293       .  A
O655        H665   0.990       .  S
O656        H669   0.990       .  S
C657       C1544   1.477       .  S
Zr680       O681   2.447       .  S
Zr680       O682   2.450       .  S
Zr680       O683   2.437       .  S
Zr680       O686   2.389       .  S
Zr680       O688   2.369       .  S
Zr680       O689   2.387       .  S
Zr680       O690   2.409   1_545  S
Zr680       O691   2.419       .  S
O681        H737   0.991       .  S
O681        H745   0.991       .  S
O682        C702   1.284       .  A
O683        C704   1.280       .  A
O684       Zr694   2.516       .  S
O684        C703   1.301       .  A
O685       Zr693   2.490       .  S
O685        C704   1.295   1_565  A
O686        C703   1.275       .  A
O687       Zr695   2.386       .  S
O687        C702   1.272       .  A
O688       Zr693   2.407   1_545  S
O688       Zr695   2.394       .  S
O689       Zr694   2.409       .  S
O689       Zr695   2.382       .  S
O689        H724   0.966       .  S
O690       Zr693   2.407       .  S
O690       Zr710   2.388       .  S
O690        H727   0.963       .  S
O691       Zr694   2.405       .  S
O691       Zr710   2.402   1_545  S
Zr692       O717   2.444       .  S
Zr692       O711   2.422       .  S
Zr692       O719   2.407       .  S
Zr692       O707   2.412       .  S
Zr692       O698   2.393   1_565  S
Zr692       O699   2.397   1_565  S
Zr692       O700   2.376       .  S
Zr692       O701   2.383       .  S
Zr693       O712   2.435       .  S
Zr693       O705   2.435   1_565  S
Zr693       O706   2.469       .  S
Zr693       O699   2.416   1_565  S
Zr693       O700   2.405       .  S
Zr694       O696   2.434       .  S
Zr694       O718   2.437       .  S
Zr694       O720   2.530       .  S
Zr694       O698   2.398       .  S
Zr694       O701   2.406   1_545  S
Zr695       O721   2.434       .  S
Zr695       O722   2.435       .  S
Zr695       O697   2.438       .  S
Zr695       O698   2.383       .  S
Zr695       O699   2.377       .  S
O696        H733   0.990   1_545  S
O697        H728   0.990       .  S
O697        H742   0.990       .  S
O699        H725   0.965       .  S
O700       Zr710   2.375       .  S
O701       Zr710   2.380       .  S
O701        H726   0.966       .  S
C702       C1222   1.462       .  S
C703       C1799   1.513       .  S
C704       C1533   1.493       .  S
O705        H741   0.990   1_545  S
O706        C708   1.290       .  A
O707        C708   1.278       .  A
C708       C1670   1.474       .  S
O709       Zr710   2.438       .  S
O709        H738   0.990       .  S
Zr710       O713   2.436       .  S
Zr710       O714   2.439       .  S
Zr710       O715   2.425       .  S
O711        C716   1.283       .  A
O712        H729   0.990       .  S
O712        H744   0.990       .  S
O713        H730   0.990       .  S
O714        H734   0.991       .  S
O714        H743   0.990       .  S
O715        C716   1.281       .  A
C716       C1208   1.487       .  S
O717        H736   0.990       .  S
O717        H740   0.991       .  S
O718        H732   0.990       .  S
O718        H739   0.990       .  S
O719        C723   1.280   1_565  A
O720        C723   1.303       .  A
O721        H731   0.990       .  S
O722        H735   0.990       .  S
C723       C2009   1.522   1_545  S
C746       C1194   1.557       .  S
C746       C1225   1.559       .  S
C746       C1295   1.556       .  S
C746       C1575   1.556       .  S
Zr747       O748   2.445       .  S
Zr747       O749   2.412       .  S
Zr747       O750   2.449       .  S
Zr747       O753   2.409       .  S
Zr747       O755   2.378       .  S
Zr747       O756   2.395   1_554  S
Zr747       O757   2.397   1_655  S
Zr747       O758   2.394   1_655  S
O748        H804   0.990       .  S
O748        H812   0.990       .  S
O749        C769   1.276       .  A
O750        C771   1.285       .  A
O751       Zr761   2.449       .  S
O751        C770   1.287   1_456  A
O752       Zr760   2.483       .  S
O752        C771   1.295       .  A
O753        C770   1.280       .  A
O754       Zr762   2.444       .  S
O754        C769   1.285   1_556  A
O755       Zr760   2.411       .  S
O755       Zr762   2.383   1_554  S
O756       Zr761   2.419   1_655  S
O756       Zr762   2.375       .  S
O756        H791   0.966       .  S
O757       Zr760   2.416   1_455  S
O757       Zr777   2.391       .  S
O757        H794   0.965       .  S
O758       Zr761   2.406   1_554  S
O758       Zr777   2.366       .  S
Zr759       O784   2.441       .  S
Zr759       O778   2.445       .  S
Zr759       O786   2.431       .  S
Zr759       O774   2.387       .  S
Zr759       O765   2.397   1_455  S
Zr759       O766   2.409   1_455  S
Zr759       O767   2.376   1_556  S
Zr759       O768   2.367       .  S
Zr760       O779   2.436   1_655  S
Zr760       O772   2.435       .  S
Zr760       O773   2.508       .  S
Zr760       O766   2.402   1_554  S
Zr760       O767   2.394   1_655  S
Zr761       O763   2.434       .  S
Zr761       O785   2.436   1_455  S
Zr761       O787   2.515       .  S
Zr761       O765   2.381   1_455  S
Zr761       O768   2.386       .  S
Zr762       O788   2.435       .  S
Zr762       O789   2.436       .  S
Zr762       O764   2.438       .  S
Zr762       O765   2.414       .  S
Zr762       O766   2.398       .  S
O763        H800   0.990       .  S
O764        H795   0.990   1_556  S
O764        H809   0.990       .  S
O766        H792   0.965       .  S
O767       Zr777   2.382       .  S
O768       Zr777   2.385   1_556  S
O768        H793   0.966       .  S
C769       C1939   1.499       .  S
C770       C1379   1.463       .  S
C771       C1617   1.513       .  S
O772        H808   0.990       .  S
O773        C775   1.298   1_654  A
O774        C775   1.278       .  A
C775       C1180   1.502       .  S
O776       Zr777   2.434       .  S
O776        H805   0.990       .  S
Zr777       O780   2.435       .  S
Zr777       O781   2.438       .  S
Zr777       O782   2.393       .  S
O778        C783   1.288       .  A
O779        H796   0.990       .  S
O779        H811   0.990       .  S
O780        H797   0.990       .  S
O781        H801   0.990       .  S
O781        H810   0.990       .  S
O782        C783   1.276   1_554  A
C783       C1883   1.465   1_556  S
O784        H803   0.990       .  S
O784        H807   0.990   1_455  S
O785        H799   0.990       .  S
O785        H806   0.990       .  S
O786        C790   1.284       .  A
O787        C790   1.300       .  A
O788        H798   0.990       .  S
O789        H802   0.989       .  S
C790       C1852   1.511       .  S
Zr813       O814   2.443       .  S
Zr813       O815   2.456       .  S
Zr813       O816   2.422       .  S
Zr813       O819   2.401   1_554  S
Zr813       O821   2.372       .  S
Zr813       O822   2.391   1_554  S
Zr813       O823   2.409       .  S
Zr813       O824   2.401   1_554  S
O814        H870   0.990       .  S
O814        H878   0.990       .  S
O815        C835   1.287       .  A
O816        C837   1.282       .  A
O817       Zr827   2.444       .  S
O817        C836   1.280       .  A
O818       Zr826   2.457       .  S
O818        C837   1.287       .  A
O819        C836   1.273       .  A
O820       Zr828   2.418   1_554  S
O820        C835   1.280       .  A
O821       Zr826   2.398       .  S
O821       Zr828   2.379   1_554  S
O822       Zr827   2.413       .  S
O822       Zr828   2.378       .  S
O822        H857   0.966       .  S
O823       Zr826   2.398       .  S
O823       Zr843   2.403   1_554  S
O823        H860   0.964       .  S
O824       Zr827   2.395       .  S
O824       Zr843   2.375       .  S
Zr825       O850   2.446       .  S
Zr825       O844   2.448       .  S
Zr825       O852   2.414       .  S
Zr825       O840   2.387       .  S
Zr825       O831   2.388       .  S
Zr825       O832   2.412   1_556  S
Zr825       O833   2.371       .  S
Zr825       O834   2.371       .  S
Zr826       O845   2.436       .  S
Zr826       O838   2.434       .  S
Zr826       O839   2.444       .  S
Zr826       O832   2.409       .  S
Zr826       O833   2.401   1_554  S
Zr827       O829   2.435       .  S
Zr827       O851   2.438       .  S
Zr827       O853   2.461       .  S
Zr827       O831   2.383       .  S
Zr827       O834   2.403       .  S
Zr828       O854   2.436       .  S
Zr828       O855   2.435       .  S
Zr828       O830   2.437   1_556  S
Zr828       O831   2.387       .  S
Zr828       O832   2.398   1_556  S
O829        H866   0.990       .  S
O830        H861   0.990       .  S
O830        H875   0.990       .  S
O832        H858   0.965       .  S
O833       Zr843   2.373       .  S
O834       Zr843   2.390       .  S
O834        H859   0.966       .  S
C835       C2034   1.500       .  S
C836       C1897   1.448       .  S
C837       C1166   1.484       .  S
O838        H874   0.990       .  S
O839        C841   1.285       .  A
O840        C841   1.274   1_556  A
C841       C1953   1.470       .  S
O842       Zr843   2.437   1_554  S
O842        H871   0.990       .  S
Zr843       O846   2.435   1_556  S
Zr843       O847   2.438       .  S
Zr843       O848   2.410       .  S
O844        C849   1.285       .  A
O845        H862   0.990       .  S
O845        H877   0.990       .  S
O846        H863   0.990       .  S
O847        H867   0.990       .  S
O847        H876   0.990       .  S
O848        C849   1.279       .  A
C849       C1491   1.497       .  S
O850        H869   0.990       .  S
O850        H873   0.988       .  S
O851        H865   0.990       .  S
O851        H872   0.990       .  S
O852        C856   1.280       .  A
O853        C856   1.288       .  A
O854        H864   0.990       .  S
O855        H868   0.990       .  S
C856       C2205   1.488       .  S
Zr879       O880   2.443       .  S
Zr879       O881   2.433       .  S
Zr879       O882   2.405       .  S
Zr879       O885   2.439       .  S
Zr879       O887   2.378       .  S
Zr879       O888   2.381       .  S
Zr879       O889   2.418   1_455  S
Zr879       O890   2.395       .  S
O880        H936   0.988       .  S
O880        H944   0.988       .  S
O881        C901   1.281       .  A
O882        C903   1.279       .  A
O883       Zr893   2.511       .  S
O883        C902   1.301       .  A
O884       Zr892   2.479       .  S
O884        C903   1.291   1_655  A
O885        C902   1.282       .  A
O886       Zr894   2.418       .  S
O886        C901   1.279       .  A
O887       Zr892   2.411   1_455  S
O887       Zr894   2.384       .  S
O888       Zr893   2.412       .  S
O888       Zr894   2.385       .  S
O888        H923   0.966       .  S
O889       Zr892   2.418       .  S
O889       Zr909   2.378       .  S
O889        H926   0.964       .  S
O890       Zr893   2.398       .  S
O890       Zr909   2.392   1_455  S
Zr891       O916   2.445       .  S
Zr891       O910   2.420       .  S
Zr891       O918   2.386       .  S
Zr891       O906   2.425       .  S
Zr891       O897   2.404   1_655  S
Zr891       O898   2.393   1_655  S
Zr891       O899   2.373       .  S
Zr891       O900   2.395       .  S
Zr892       O911   2.435       .  S
Zr892       O904   2.435   1_655  S
Zr892       O905   2.499       .  S
Zr892       O898   2.399   1_655  S
Zr892       O899   2.395       .  S
Zr893       O895   2.435       .  S
Zr893       O917   2.436       .  S
Zr893       O919   2.514       .  S
Zr893       O897   2.401       .  S
Zr893       O900   2.401   1_455  S
Zr894       O920   2.435       .  S
Zr894       O921   2.435       .  S
Zr894       O896   2.437       .  S
Zr894       O897   2.390       .  S
Zr894       O898   2.391       .  S
O895        H932   0.990       .  S
O896        H927   0.990       .  S
O896        H941   0.990       .  S
O898        H924   0.965       .  S
O899       Zr909   2.388       .  S
O900       Zr909   2.359       .  S
O900        H925   0.966       .  S
C901       C1152   1.497       .  S
C902       C1841   1.520       .  S
C903       C1421   1.484   1_455  S
O904        H940   0.990       .  S
O905        C907   1.297       .  A
O906        C907   1.282       .  A
C907       C1603   1.495       .  S
O908       Zr909   2.436       .  S
O908        H937   0.990       .  S
Zr909       O912   2.435       .  S
Zr909       O913   2.439       .  S
Zr909       O914   2.424       .  S
O910        C915   1.282       .  A
O911        H928   0.990       .  S
O911        H943   0.990       .  S
O912        H929   0.990       .  S
O913        H933   0.990       .  S
O913        H942   0.990       .  S
O914        C915   1.283       .  A
C915       C2177   1.477       .  S
O916        H935   0.990   1_655  S
O916        H939   0.990       .  S
O917        H931   0.990       .  S
O917        H938   0.990       .  S
O918        C922   1.272   1_655  A
O919        C922   1.298       .  A
O920        H930   0.990       .  S
O921        H934   0.990       .  S
C922       C1743   1.508   1_455  S
C945       C1138   1.582       .  S
C945       C1155   1.568       .  S
C945       C1281   1.568       .  S
C945       C1463   1.550       .  S
Zr946       O947   2.442       .  S
Zr946       O948   2.440       .  S
Zr946       O949   2.434       .  S
Zr946       O952   2.386       .  S
Zr946       O954   2.373       .  S
Zr946       O955   2.398       .  S
Zr946       O956   2.402       .  S
Zr946       O957   2.406       .  S
O947       H1003   0.989       .  S
O947       H1011   0.990       .  S
O948        C968   1.283       .  A
O949        C970   1.284       .  A
O950       Zr960   2.500       .  S
O950        C969   1.290       .  A
O951       Zr959   2.495       .  S
O951        C970   1.296       .  A
O952        C969   1.267       .  A
O953       Zr961   2.391       .  S
O953        C968   1.276       .  A
O954       Zr959   2.404       .  S
O954       Zr961   2.393       .  S
O955       Zr960   2.409       .  S
O955       Zr961   2.367       .  S
O955        H990   0.966       .  S
O956       Zr959   2.403       .  S
O956       Zr976   2.402       .  S
O956        H993   0.964       .  S
O957       Zr960   2.408       .  S
O957       Zr976   2.390       .  S
Zr958       O983   2.442       .  S
Zr958       O977   2.419       .  S
Zr958       O985   2.398       .  S
Zr958       O973   2.381       .  S
Zr958       O964   2.395       .  S
Zr958       O965   2.400       .  S
Zr958       O966   2.372       .  S
Zr958       O967   2.374       .  S
Zr959       O978   2.434       .  S
Zr959       O971   2.435       .  S
Zr959       O972   2.485       .  S
Zr959       O965   2.411       .  S
Zr959       O966   2.409       .  S
Zr960       O962   2.434       .  S
Zr960       O984   2.436       .  S
Zr960       O986   2.515       .  S
Zr960       O964   2.393       .  S
Zr960       O967   2.417       .  S
Zr961       O987   2.436       .  S
Zr961       O988   2.436       .  S
Zr961       O963   2.436       .  S
Zr961       O964   2.384       .  S
Zr961       O965   2.374       .  S
O962        H999   0.990       .  S
O963        H994   0.990       .  S
O963       H1008   0.990       .  S
O965        H991   0.964       .  S
O966       Zr976   2.379       .  S
O967       Zr976   2.392       .  S
O967        H992   0.966       .  S
C968       C1197   1.466       .  S
C969       C1141   1.487       .  S
C970       C1127   1.513       .  S
O971       H1007   0.990       .  S
O972        C974   1.294       .  A
O973        C974   1.275       .  A
C974       C2163   1.486       .  S
O975       Zr976   2.435       .  S
O975       H1004   0.990       .  S
Zr976       O979   2.434       .  S
Zr976       O980   2.439       .  S
Zr976       O981   2.425       .  S
O977        C982   1.280       .  A
O978        H995   0.990       .  S
O978       H1010   0.990       .  S
O979        H996   0.990       .  S
O980       H1000   0.990       .  S
O980       H1009   0.990       .  S
O981        C982   1.280       .  A
C982       C1110   1.477       .  S
O983       H1002   0.990       .  S
O983       H1006   0.991       .  S
O984        H998   0.990       .  S
O984       H1005   0.990       .  S
O985        C989   1.276       .  A
O986        C989   1.299       .  A
O987        H997   0.990       .  S
O988       H1001   0.990       .  S
C989       C2219   1.521       .  S
C1012      C1124   1.584       .  S
C1012      C1169   1.575       .  S
C1012      C1264   1.578       .  S
C1012      C1701   1.588       .  S
C1013      C1096   1.597   1_655  S
C1013      C1183   1.564   1_655  S
C1013      C1337   1.587       .  S
C1013      C2412   1.595       .  S
Zr1014     O1015   2.441       .  S
Zr1014     O1016   2.398       .  S
Zr1014     O1017   2.415       .  S
Zr1014     O1020   2.384       .  S
Zr1014     O1022   2.375       .  S
Zr1014     O1023   2.379       .  S
Zr1014     O1024   2.391       .  S
Zr1014     O1025   2.393       .  S
O1015      H1071   0.991       .  S
O1015      H1079   0.989       .  S
O1016      C1036   1.275       .  A
O1017      C1038   1.281       .  A
O1018     Zr1028   2.513       .  S
O1018      C1037   1.300       .  A
O1019     Zr1027   2.490       .  S
O1019      C1038   1.294       .  A
O1020      C1037   1.274       .  A
O1021     Zr1029   2.384       .  S
O1021      C1036   1.276       .  A
O1022     Zr1027   2.397       .  S
O1022     Zr1029   2.390       .  S
O1023     Zr1028   2.389       .  S
O1023     Zr1029   2.380       .  S
O1023      H1058   0.966       .  S
O1024     Zr1027   2.402       .  S
O1024     Zr1044   2.390       .  S
O1024      H1061   0.965       .  S
O1025     Zr1028   2.399       .  S
O1025     Zr1044   2.395       .  S
Zr1026     O1051   2.446       .  S
Zr1026     O1045   2.406       .  S
Zr1026     O1053   2.404       .  S
Zr1026     O1041   2.397       .  S
Zr1026     O1032   2.390       .  S
Zr1026     O1033   2.394       .  S
Zr1026     O1034   2.379       .  S
Zr1026     O1035   2.380       .  S
Zr1027     O1046   2.435       .  S
Zr1027     O1039   2.435       .  S
Zr1027     O1040   2.471       .  S
Zr1027     O1033   2.408       .  S
Zr1027     O1034   2.400       .  S
Zr1028     O1030   2.434       .  S
Zr1028     O1052   2.436       .  S
Zr1028     O1054   2.496       .  S
Zr1028     O1032   2.399       .  S
Zr1028     O1035   2.398       .  S
Zr1029     O1055   2.437       .  S
Zr1029     O1056   2.437       .  S
Zr1029     O1031   2.437       .  S
Zr1029     O1032   2.383       .  S
Zr1029     O1033   2.376       .  S
O1030      H1067   0.990       .  S
O1031      H1062   0.990       .  S
O1031      H1076   0.990       .  S
O1033      H1059   0.966       .  S
O1034     Zr1044   2.377       .  S
O1035     Zr1044   2.376       .  S
O1035      H1060   0.966       .  S
C1036      C1866   1.468       .  S
C1037      C1099   1.490       .  S
C1038      C1810   1.506       .  S
O1039      H1075   0.990       .  S
O1040      C1042   1.292       .  A
O1041      C1042   1.278       .  A
C1042      C1082   1.468       .  S
O1043     Zr1044   2.436       .  S
O1043      H1072   0.990       .  S
Zr1044     O1047   2.434       .  S
Zr1044     O1048   2.440       .  S
Zr1044     O1049   2.417       .  S
O1045      C1050   1.279       .  A
O1046      H1063   0.990       .  S
O1046      H1078   0.990       .  S
O1047      H1064   0.990       .  S
O1048      H1068   0.990       .  S
O1048      H1077   0.990       .  S
O1049      C1050   1.280       .  A
C1050      C1645   1.458       .  S
O1051      H1070   0.990       .  S
O1051      H1074   0.990       .  S
O1052      H1066   0.990       .  S
O1052      H1073   0.990       .  S
O1053      C1057   1.278       .  A
O1054      C1057   1.298       .  A
O1055      H1065   0.990       .  S
O1056      H1069   0.990       .  S
C1057      C1967   1.489       .  S
C1080      C1085   1.574       .  S
C1080      C1113   1.561       .  S
C1080      C1211   1.563       .  S
C1080      C2370   1.575       .  S
C1081      C1082   1.386       .  A
C1081      C1086   1.390       .  A
C1081      H1088   1.086       .  S
C1082      C1083   1.405       .  A
C1083      C1084   1.414       .  A
C1083      N1090   1.437       .  S
C1084      C1085   1.420       .  A
C1084      H1089   1.078       .  S
C1085      C1086   1.444       .  A
C1086      N1087   1.433       .  S
N1087      H1091   1.039       .  S
N1087      H1092   1.040       .  S
N1090      H1093   1.045       .  S
N1090      H1094   1.046       .  S
C1095      C1096   1.420       .  A
C1095      C1100   1.413       .  A
C1095      H1102   1.076       .  S
C1096      C1097   1.431       .  A
C1097      C1098   1.410       .  A
C1097      N1104   1.433       .  S
C1098      C1099   1.401       .  A
C1098      H1103   1.084       .  S
C1099      C1100   1.416       .  A
C1100      N1101   1.439       .  S
N1101      H1105   1.046       .  S
N1101      H1106   1.044       .  S
N1104      H1107   1.046       .  S
N1104      H1108   1.046       .  S
C1109      C1110   1.393       .  A
C1109      C1114   1.394       .  A
C1109      H1116   1.085       .  S
C1110      C1111   1.409       .  A
C1111      C1112   1.412       .  A
C1111      N1118   1.437       .  S
C1112      C1113   1.415       .  A
C1112      H1117   1.078       .  S
C1113      C1114   1.428       .  A
C1114      N1115   1.433       .  S
N1115      H1119   1.046       .  S
N1115      H1120   1.046       .  S
N1118      H1121   1.046       .  S
N1118      H1122   1.046       .  S
C1123      C1124   1.414       .  A
C1123      C1128   1.401       .  A
C1123      H1130   1.078       .  S
C1124      C1125   1.428       .  A
C1125      C1126   1.424       .  A
C1125      N1132   1.432       .  S
C1126      C1127   1.410       .  A
C1126      H1131   1.083       .  S
C1127      C1128   1.414       .  A
C1128      N1129   1.432       .  S
N1129      H1133   1.046       .  S
N1129      H1134   1.046       .  S
N1132      H1135   1.045       .  S
N1132      H1136   1.045       .  S
C1137      C1138   1.418       .  A
C1137      C1142   1.399       .  A
C1137      H1144   1.075       .  S
C1138      C1139   1.433       .  A
C1139      C1140   1.412       .  A
C1139      N1146   1.433       .  S
C1140      C1141   1.399       .  A
C1140      H1145   1.084       .  S
C1141      C1142   1.413       .  A
C1142      N1143   1.434       .  S
N1143      H1147   1.044       .  S
N1143      H1148   1.046       .  S
N1146      H1149   1.046       .  S
N1146      H1150   1.045       .  S
C1151      C1152   1.412       .  A
C1151      C1156   1.411       .  A
C1151      H1158   1.083       .  S
C1152      C1153   1.417       .  A
C1153      C1154   1.387       .  A
C1153      N1160   1.431       .  S
C1154      C1155   1.413       .  A
C1154      H1159   1.080       .  S
C1155      C1156   1.418       .  A
C1156      N1157   1.433       .  S
N1157      H1161   1.045       .  S
N1157      H1162   1.045       .  S
N1160      H1163   1.045       .  S
N1160      H1164   1.044       .  S
C1165      C1166   1.397       .  A
C1165      C1170   1.393       .  A
C1165      H1172   1.085       .  S
C1166      C1167   1.406       .  A
C1167      C1168   1.415       .  A
C1167      N1174   1.431       .  S
C1168      C1169   1.421       .  A
C1168      H1173   1.079       .  S
C1169      C1170   1.430       .  A
C1170      N1171   1.434       .  S
N1171      H1175   1.046       .  S
N1171      H1176   1.046       .  S
N1174      H1177   1.046       .  S
N1174      H1178   1.045       .  S
C1179      C1180   1.406       .  A
C1179      C1184   1.390       .  A
C1179      H1186   1.078       .  S
C1180      C1181   1.413       .  A
C1181      C1182   1.418       .  A
C1181      N1188   1.431   1_456  S
C1182      C1183   1.424       .  A
C1182      H1187   1.078   1_455  S
C1183      C1184   1.417       .  A
C1184      N1185   1.435       .  S
N1185      H1189   1.046       .  S
N1185      H1190   1.046   1_455  S
N1188      H1191   1.046   1_655  S
N1188      H1192   1.045       .  S
C1193      C1194   1.417       .  A
C1193      C1198   1.393       .  A
C1193      H1200   1.078       .  S
C1194      C1195   1.425       .  A
C1195      C1196   1.403       .  A
C1195      N1202   1.432       .  S
C1196      C1197   1.397       .  A
C1196      H1201   1.084       .  S
C1197      C1198   1.402       .  A
C1198      N1199   1.434       .  S
N1199      H1203   1.046       .  S
N1199      H1204   1.046       .  S
N1202      H1205   1.045       .  S
N1202      H1206   1.045       .  S
C1207      C1208   1.397       .  A
C1207      C1212   1.398       .  A
C1207      H1214   1.084       .  S
C1208      C1209   1.409       .  A
C1209      C1210   1.407       .  A
C1209      N1216   1.432       .  S
C1210      C1211   1.415       .  A
C1210      H1215   1.078       .  S
C1211      C1212   1.434       .  A
C1212      N1213   1.433       .  S
N1213      H1217   1.046       .  S
N1213      H1218   1.046       .  S
N1216      H1219   1.046       .  S
N1216      H1220   1.046       .  S
C1221      C1222   1.398       .  A
C1221      C1226   1.406       .  A
C1221      H1228   1.084       .  S
C1222      C1223   1.400       .  A
C1223      C1224   1.388       .  A
C1223      N1230   1.433       .  S
C1224      C1225   1.419       .  A
C1224      H1229   1.082       .  S
C1225      C1226   1.427       .  A
C1226      N1227   1.431       .  S
N1227      H1231   1.046       .  S
N1227      H1232   1.046       .  S
N1230      H1233   1.045       .  S
N1230      H1234   1.045       .  S
C1235      C1236   1.419   1_556  A
C1235      C1240   1.397       .  A
C1235      H1242   1.077       .  S
C1236      C1237   1.426       .  A
C1237      C1238   1.400       .  A
C1237      N1244   1.431       .  S
C1238      C1239   1.399   1_554  A
C1238      H1243   1.084       .  S
C1239      C1240   1.407       .  A
C1240      N1241   1.440       .  S
N1241      H1245   1.046       .  S
N1241      H1246   1.046       .  S
N1244      H1247   1.045       .  S
N1244      H1248   1.046       .  S
C1249      C1250   1.402   1_565  A
C1249      C1254   1.413       .  A
C1249      H1256   1.084       .  S
C1250      C1251   1.406       .  A
C1251      C1252   1.412       .  A
C1251      N1258   1.438       .  S
C1252      C1253   1.423       .  A
C1252      H1257   1.078       .  S
C1253      C1254   1.428   1_545  A
C1254      N1255   1.432       .  S
N1255      H1259   1.045       .  S
N1255      H1260   1.046       .  S
N1258      H1261   1.045       .  S
N1258      H1262   1.045       .  S
C1263      C1264   1.417       .  A
C1263      C1268   1.410       .  A
C1263      H1270   1.079       .  S
C1264      C1265   1.431       .  A
C1265      C1266   1.403       .  A
C1265      N1272   1.434       .  S
C1266      C1267   1.396       .  A
C1266      H1271   1.085       .  S
C1267      C1268   1.414       .  A
C1268      N1269   1.438       .  S
N1269      H1273   1.045       .  S
N1269      H1274   1.044       .  S
N1272      H1275   1.046       .  S
N1272      H1276   1.046       .  S
C1277      C1278   1.396       .  A
C1277      C1282   1.413       .  A
C1277      H1284   1.084       .  S
C1278      C1279   1.418       .  A
C1279      C1280   1.400       .  A
C1279      N1286   1.432       .  S
C1280      C1281   1.405       .  A
C1280      H1285   1.079       .  S
C1281      C1282   1.434       .  A
C1282      N1283   1.431       .  S
N1283      H1287   1.046       .  S
N1283      H1288   1.046       .  S
N1286      H1289   1.045       .  S
N1286      H1290   1.046       .  S
C1291      C1292   1.394       .  A
C1291      C1296   1.404       .  A
C1291      H1298   1.084       .  S
C1292      C1293   1.402       .  A
C1293      C1294   1.392       .  A
C1293      N1300   1.441       .  S
C1294      C1295   1.413       .  A
C1294      H1299   1.079       .  S
C1295      C1296   1.428       .  A
C1296      N1297   1.433       .  S
N1297      H1301   1.045       .  S
N1297      H1302   1.046       .  S
N1300      H1303   1.045       .  S
N1300      H1304   1.045       .  S
C1305      C1306   1.411       .  A
C1305      C1310   1.405       .  A
C1305      H1312   1.078       .  S
C1306      C1307   1.429       .  A
C1307      C1308   1.423       .  A
C1307      N1314   1.432       .  S
C1308      C1309   1.410       .  A
C1308      H1313   1.083       .  S
C1309      C1310   1.429       .  A
C1310      N1311   1.431       .  S
N1311      H1315   1.042       .  S
N1311      H1316   1.046       .  S
N1314      H1317   1.046       .  S
N1314      H1318   1.045       .  S
C1319      C1320   1.394       .  A
C1319      C1324   1.402       .  A
C1319      H1326   1.084       .  S
C1320      C1321   1.398       .  A
C1321      C1322   1.396       .  A
C1321      N1328   1.432       .  S
C1322      C1323   1.420       .  A
C1322      H1327   1.075       .  S
C1323      C1324   1.431       .  A
C1324      N1325   1.432       .  S
N1325      H1329   1.046       .  S
N1325      H1330   1.045       .  S
N1328      H1331   1.045       .  S
N1328      H1332   1.041       .  S
C1333      C1334   1.408       .  A
C1333      C1338   1.424       .  A
C1333      H1340   1.083       .  S
C1334      C1335   1.397   1_655  A
C1335      C1336   1.393       .  A
C1335      N1342   1.435       .  S
C1336      C1337   1.422   1_455  A
C1336      H1341   1.076       .  S
C1337      C1338   1.427       .  A
C1338      N1339   1.431       .  S
N1339      H1343   1.046       .  S
N1339      H1344   1.045       .  S
N1342      H1345   1.045       .  S
N1342      H1346   1.045       .  S
C1347      C1348   1.408       .  A
C1347      C1352   1.401       .  A
C1347      H1354   1.084       .  S
C1348      C1349   1.406   1_554  A
C1349      C1350   1.390       .  A
C1349      N1356   1.440       .  S
C1350      C1351   1.420   1_556  A
C1350      H1355   1.080       .  S
C1351      C1352   1.429       .  A
C1352      N1353   1.431       .  S
N1353      H1357   1.041       .  S
N1353      H1358   1.041       .  S
N1356      H1359   1.046       .  S
N1356      H1360   1.046       .  S
C1361      C1362   1.409   1_545  A
C1361      C1366   1.412       .  A
C1361      H1368   1.084       .  S
C1362      C1363   1.411       .  A
C1363      C1364   1.411       .  A
C1363      N1370   1.432       .  S
C1364      C1365   1.426       .  A
C1364      H1369   1.078       .  S
C1365      C1366   1.424   1_565  A
C1366      N1367   1.433       .  S
N1367      H1371   1.045       .  S
N1367      H1372   1.046       .  S
N1370      H1373   1.045       .  S
N1370      H1374   1.045       .  S
C1375      C1376   1.417   1_455  A
C1375      C1380   1.404       .  A
C1375      H1382   1.077       .  S
C1376      C1377   1.427       .  A
C1377      C1378   1.400       .  A
C1377      N1384   1.433       .  S
C1378      C1379   1.394       .  A
C1378      H1383   1.084       .  S
C1379      C1380   1.405   1_655  A
C1380      N1381   1.439       .  S
N1381      H1385   1.046       .  S
N1381      H1386   1.045       .  S
N1384      H1387   1.046       .  S
N1384      H1388   1.046       .  S
C1389      C1390   1.415       .  A
C1389      C1394   1.396       .  A
C1389      H1396   1.083       .  S
C1390      C1391   1.434       .  A
C1391      C1392   1.401       .  A
C1391      N1398   1.432   1_455  S
C1392      C1393   1.395       .  A
C1392      H1397   1.084       .  S
C1393      C1394   1.411       .  A
C1394      N1395   1.430       .  S
N1395      H1399   1.045       .  S
N1395      H1400   1.042       .  S
N1398      H1401   1.046       .  S
N1398      H1402   1.046       .  S
C1403      C1404   1.421       .  A
C1403      C1408   1.398       .  A
C1403      H1410   1.079       .  S
C1404      C1405   1.422       .  A
C1405      C1406   1.394       .  A
C1405      N1412   1.432       .  S
C1406      C1407   1.399       .  A
C1406      H1411   1.085       .  S
C1407      C1408   1.406       .  A
C1408      N1409   1.433   1_654  S
N1409      H1413   1.045   1_455  S
N1409      H1414   1.046       .  S
N1412      H1415   1.046       .  S
N1412      H1416   1.046       .  S
C1417      C1418   1.409       .  A
C1417      C1422   1.385       .  A
C1417      H1424   1.084       .  S
C1418      C1419   1.437       .  A
C1419      C1420   1.418       .  A
C1419      N1426   1.431       .  S
C1420      C1421   1.401       .  A
C1420      H1425   1.083       .  S
C1421      C1422   1.408       .  A
C1422      N1423   1.433       .  S
N1423      H1427   1.044   1_655  S
N1423      H1428   1.046       .  S
N1426      H1429   1.045       .  S
N1426      H1430   1.046       .  S
C1431      C1432   1.421       .  A
C1431      C1436   1.397       .  A
C1431      H1438   1.078       .  S
C1432      C1433   1.419   1_655  A
C1433      C1434   1.396       .  A
C1433      N1440   1.433       .  S
C1434      C1435   1.405   1_455  A
C1434      H1439   1.084       .  S
C1435      C1436   1.404       .  A
C1436      N1437   1.434       .  S
N1437      H1441   1.046       .  S
N1437      H1442   1.046       .  S
N1440      H1443   1.045       .  S
N1440      H1444   1.046       .  S
C1445      C1446   1.402       .  A
C1445      C1450   1.403       .  A
C1445      H1452   1.084       .  S
C1446      C1447   1.407       .  A
C1447      C1448   1.420       .  A
C1447      N1454   1.431       .  S
C1448      C1449   1.426       .  A
C1448      H1453   1.083       .  S
C1449      C1450   1.433       .  A
C1450      N1451   1.432       .  S
N1451      H1455   1.046       .  S
N1451      H1456   1.046       .  S
N1454      H1457   1.046       .  S
N1454      H1458   1.046       .  S
C1459      C1460   1.388       .  A
C1459      C1464   1.382       .  A
C1459      H1466   1.085       .  S
C1460      C1461   1.405       .  A
C1461      C1462   1.401       .  A
C1461      N1468   1.438       .  S
C1462      C1463   1.415       .  A
C1462      H1467   1.079       .  S
C1463      C1464   1.429       .  A
C1464      N1465   1.434       .  S
N1465      H1469   1.046       .  S
N1465      H1470   1.046       .  S
N1468      H1471   1.045       .  S
N1468      H1472   1.046       .  S
C1473      C1474   1.416       .  A
C1473      C1478   1.399       .  A
C1473      H1480   1.083       .  S
C1474      C1475   1.435       .  A
C1475      C1476   1.387       .  A
C1475      N1482   1.440       .  S
C1476      C1477   1.394       .  A
C1476      H1481   1.085       .  S
C1477      C1478   1.403       .  A
C1478      N1479   1.437       .  S
N1479      H1483   1.046       .  S
N1479      H1484   1.045       .  S
N1482      H1485   1.038       .  S
N1482      H1486   1.045       .  S
C1487      C1488   1.420       .  A
C1487      C1492   1.391       .  A
C1487      H1494   1.080       .  S
C1488      C1489   1.420       .  A
C1489      C1490   1.410       .  A
C1489      N1496   1.432       .  S
C1490      C1491   1.410       .  A
C1490      H1495   1.083       .  S
C1491      C1492   1.413       .  A
C1492      N1493   1.432       .  S
N1493      H1497   1.040       .  S
N1493      H1498   1.045       .  S
N1496      H1499   1.046       .  S
N1496      H1500   1.046       .  S
C1501      C1502   1.402       .  A
C1501      C1506   1.388       .  A
C1501      H1508   1.084       .  S
C1502      C1503   1.410       .  A
C1503      C1504   1.425       .  A
C1503      N1510   1.435   1_556  S
C1504      C1505   1.423       .  A
C1504      H1509   1.079       .  S
C1505      C1506   1.422       .  A
C1506      N1507   1.434       .  S
N1507      H1511   1.046       .  S
N1507      H1512   1.046       .  S
N1510      H1513   1.045       .  S
N1510      H1514   1.045       .  S
C1515      C1516   1.423       .  A
C1515      C1520   1.410       .  A
C1515      H1522   1.082       .  S
C1516      C1517   1.432       .  A
C1517      C1518   1.404       .  A
C1517      N1524   1.432       .  S
C1518      C1519   1.401       .  A
C1518      H1523   1.083       .  S
C1519      C1520   1.410       .  A
C1520      N1521   1.432       .  S
N1521      H1525   1.045       .  S
N1521      H1526   1.046       .  S
N1524      H1527   1.046       .  S
N1524      H1528   1.046       .  S
C1529      C1530   1.422   1_565  A
C1529      C1534   1.413       .  A
C1529      H1536   1.076       .  S
C1530      C1531   1.431       .  A
C1531      C1532   1.414       .  A
C1531      N1538   1.433       .  S
C1532      C1533   1.402       .  A
C1532      H1537   1.084       .  S
C1533      C1534   1.407   1_545  A
C1534      N1535   1.439       .  S
N1535      H1539   1.045       .  S
N1535      H1540   1.045       .  S
N1538      H1541   1.046       .  S
N1538      H1542   1.045       .  S
C1543      C1544   1.396   1_565  A
C1543      C1548   1.400       .  A
C1543      H1550   1.085       .  S
C1544      C1545   1.405       .  A
C1545      C1546   1.412       .  A
C1545      N1552   1.438       .  S
C1546      C1547   1.420       .  A
C1546      H1551   1.075       .  S
C1547      C1548   1.431   1_545  A
C1548      N1549   1.433       .  S
N1549      H1553   1.046   1_565  S
N1549      H1554   1.046       .  S
N1552      H1555   1.045       .  S
N1552      H1556   1.046       .  S
C1557      C1558   1.410       .  A
C1557      C1562   1.415       .  A
C1557      H1564   1.083       .  S
C1558      C1559   1.401       .  A
C1559      C1560   1.397       .  A
C1559      N1566   1.434       .  S
C1560      C1561   1.425       .  A
C1560      H1565   1.072       .  S
C1561      C1562   1.422       .  A
C1562      N1563   1.432       .  S
N1563      H1567   1.046       .  S
N1563      H1568   1.045       .  S
N1566      H1569   1.046       .  S
N1566      H1570   1.046       .  S
C1571      C1572   1.397       .  A
C1571      C1576   1.399       .  A
C1571      H1578   1.085       .  S
C1572      C1573   1.403       .  A
C1573      C1574   1.387       .  A
C1573      N1580   1.434       .  S
C1574      C1575   1.418       .  A
C1574      H1579   1.081       .  S
C1575      C1576   1.426       .  A
C1576      N1577   1.432       .  S
N1577      H1581   1.045       .  S
N1577      H1582   1.046       .  S
N1580      H1583   1.046       .  S
N1580      H1584   1.045       .  S
C1585      C1586   1.396       .  A
C1585      C1590   1.406       .  A
C1585      H1592   1.084       .  S
C1586      C1587   1.409       .  A
C1587      C1588   1.389       .  A
C1587      N1594   1.433       .  S
C1588      C1589   1.410       .  A
C1588      H1593   1.080       .  S
C1589      C1590   1.428       .  A
C1590      N1591   1.432       .  S
N1591      H1595   1.045       .  S
N1591      H1596   1.045       .  S
N1594      H1597   1.045       .  S
N1594      H1598   1.044       .  S
C1599      C1600   1.428       .  A
C1599      C1604   1.408       .  A
C1599      H1606   1.083       .  S
C1600      C1601   1.434       .  A
C1601      C1602   1.417       .  A
C1601      N1608   1.430       .  S
C1602      C1603   1.406       .  A
C1602      H1607   1.084       .  S
C1603      C1604   1.403       .  A
C1604      N1605   1.438       .  S
N1605      H1609   1.046       .  S
N1605      H1610   1.045       .  S
N1608      H1611   1.043       .  S
N1608      H1612   1.037       .  S
C1613      C1614   1.430       .  A
C1613      C1618   1.407       .  A
C1613      H1620   1.071       .  S
C1614      C1615   1.434       .  A
C1615      C1616   1.423       .  A
C1615      N1622   1.434       .  S
C1616      C1617   1.411       .  A
C1616      H1621   1.084       .  S
C1617      C1618   1.402       .  A
C1618      N1619   1.433       .  S
N1619      H1623   1.046       .  S
N1619      H1624   1.046       .  S
N1622      H1625   1.045       .  S
N1622      H1626   1.046       .  S
C1627      C1628   1.431       .  A
C1627      C1632   1.391       .  A
C1627      H1634   1.076       .  S
C1628      C1629   1.423       .  A
C1629      C1630   1.417       .  A
C1629      N1636   1.433       .  S
C1630      C1631   1.411       .  A
C1630      H1635   1.084       .  S
C1631      C1632   1.402       .  A
C1632      N1633   1.434       .  S
N1633      H1637   1.045       .  S
N1633      H1638   1.045       .  S
N1636      H1639   1.045       .  S
N1636      H1640   1.046       .  S
C1641      C1642   1.410       .  A
C1641      C1646   1.401       .  A
C1641      H1648   1.073       .  S
C1642      C1643   1.429       .  A
C1643      C1644   1.397       .  A
C1643      N1650   1.435       .  S
C1644      C1645   1.391       .  A
C1644      H1649   1.085       .  S
C1645      C1646   1.407       .  A
C1646      N1647   1.438       .  S
N1647      H1651   1.045       .  S
N1647      H1652   1.044       .  S
N1650      H1653   1.045       .  S
N1650      H1654   1.046       .  S
C1655      C1656   1.413       .  A
C1655      C1660   1.407       .  A
C1655      H1662   1.074       .  S
C1656      C1657   1.428       .  A
C1657      C1658   1.402       .  A
C1657      N1664   1.426       .  S
C1658      C1659   1.391       .  A
C1658      H1663   1.085       .  S
C1659      C1660   1.412       .  A
C1660      N1661   1.438       .  S
N1661      H1665   1.046       .  S
N1661      H1666   1.043       .  S
N1664      H1667   1.046       .  S
N1664      H1668   1.046       .  S
C1669      C1670   1.397       .  A
C1669      C1674   1.414       .  A
C1669      H1676   1.084       .  S
C1670      C1671   1.403       .  A
C1671      C1672   1.397       .  A
C1671      N1678   1.440       .  S
C1672      C1673   1.423       .  A
C1672      H1677   1.074       .  S
C1673      C1674   1.443       .  A
C1674      N1675   1.432       .  S
N1675      H1679   1.046       .  S
N1675      H1680   1.046       .  S
N1678      H1681   1.044       .  S
N1678      H1682   1.046       .  S
C1683      C1684   1.397       .  A
C1683      C1688   1.409       .  A
C1683      H1690   1.085       .  S
C1684      C1685   1.407       .  A
C1685      C1686   1.393       .  A
C1685      N1692   1.439       .  S
C1686      C1687   1.412       .  A
C1686      H1691   1.071       .  S
C1687      C1688   1.436       .  A
C1688      N1689   1.433       .  S
N1689      H1693   1.046       .  S
N1689      H1694   1.046       .  S
N1692      H1695   1.042       .  S
N1692      H1696   1.046       .  S
C1697      C1698   1.410       .  A
C1697      C1702   1.428       .  A
C1697      H1704   1.083       .  S
C1698      C1699   1.413       .  A
C1699      C1700   1.396       .  A
C1699      N1706   1.434       .  S
C1700      C1701   1.414       .  A
C1700      H1705   1.076       .  S
C1701      C1702   1.429       .  A
C1702      N1703   1.431       .  S
N1703      H1707   1.046       .  S
N1703      H1708   1.045       .  S
N1706      H1709   1.046       .  S
N1706      H1710   1.045       .  S
C1711      C1712   1.408       .  A
C1711      C1716   1.420       .  A
C1711      H1718   1.083       .  S
C1712      C1713   1.417       .  A
C1713      C1714   1.407       .  A
C1713      N1720   1.432       .  S
C1714      C1715   1.412       .  A
C1714      H1719   1.079       .  S
C1715      C1716   1.437       .  A
C1716      N1717   1.433       .  S
N1717      H1721   1.044   1_565  S
N1717      H1722   1.042       .  S
N1720      H1723   1.046       .  S
N1720      H1724   1.045       .  S
C1725      C1726   1.405       .  A
C1725      C1730   1.417       .  A
C1725      H1732   1.083       .  S
C1726      C1727   1.405       .  A
C1727      C1728   1.394       .  A
C1727      N1734   1.441       .  S
C1728      C1729   1.419       .  A
C1728      H1733   1.080       .  S
C1729      C1730   1.422       .  A
C1730      N1731   1.431       .  S
N1731      H1735   1.045       .  S
N1731      H1736   1.045       .  S
N1734      H1737   1.046       .  S
N1734      H1738   1.046       .  S
C1739      C1740   1.427   1_455  A
C1739      C1744   1.411       .  A
C1739      H1746   1.081       .  S
C1740      C1741   1.419       .  A
C1741      C1742   1.399       .  A
C1741      N1748   1.432       .  S
C1742      C1743   1.413       .  A
C1742      H1747   1.083       .  S
C1743      C1744   1.411   1_655  A
C1744      N1745   1.432       .  S
N1745      H1749   1.045       .  S
N1745      H1750   1.045       .  S
N1748      H1751   1.046       .  S
N1748      H1752   1.046       .  S
C1753      C1754   1.417   1_455  A
C1753      C1758   1.384       .  A
C1753      H1760   1.080       .  S
C1754      C1755   1.423       .  A
C1755      C1756   1.401       .  A
C1755      N1762   1.431       .  S
C1756      C1757   1.401       .  A
C1756      H1761   1.084       .  S
C1757      C1758   1.404   1_655  A
C1758      N1759   1.435       .  S
N1759      H1763   1.044       .  S
N1759      H1764   1.046   1_455  S
N1762      H1765   1.046       .  S
N1762      H1766   1.046       .  S
C1767      C1768   1.405       .  A
C1767      C1772   1.417       .  A
C1767      H1774   1.084       .  S
C1768      C1769   1.406       .  A
C1769      C1770   1.391       .  A
C1769      N1776   1.432       .  S
C1770      C1771   1.418       .  A
C1770      H1775   1.075       .  S
C1771      C1772   1.427       .  A
C1772      N1773   1.431       .  S
N1773      H1777   1.046       .  S
N1773      H1778   1.045       .  S
N1776      H1779   1.046       .  S
N1776      H1780   1.042       .  S
C1781      C1782   1.394       .  A
C1781      C1786   1.402       .  A
C1781      H1788   1.084       .  S
C1782      C1783   1.407       .  A
C1783      C1784   1.410       .  A
C1783      N1790   1.438       .  S
C1784      C1785   1.417       .  A
C1784      H1789   1.076       .  S
C1785      C1786   1.432       .  A
C1786      N1787   1.434       .  S
N1787      H1791   1.046       .  S
N1787      H1792   1.046       .  S
N1790      H1793   1.046       .  S
N1790      H1794   1.046       .  S
C1795      C1796   1.429       .  A
C1795      C1800   1.408       .  A
C1795      H1802   1.077       .  S
C1796      C1797   1.417       .  A
C1797      C1798   1.411       .  A
C1797      N1804   1.433       .  S
C1798      C1799   1.417       .  A
C1798      H1803   1.082       .  S
C1799      C1800   1.409       .  A
C1800      N1801   1.432       .  S
N1801      H1805   1.045       .  S
N1801      H1806   1.045       .  S
N1804      H1807   1.046       .  S
N1804      H1808   1.046       .  S
C1809      C1810   1.404       .  A
C1809      C1814   1.398       .  A
C1809      H1816   1.081       .  S
C1810      C1811   1.416       .  A
C1811      C1812   1.419       .  A
C1811      N1818   1.431       .  S
C1812      C1813   1.421       .  A
C1812      H1817   1.079       .  S
C1813      C1814   1.424       .  A
C1814      N1815   1.434       .  S
N1815      H1819   1.046       .  S
N1815      H1820   1.046       .  S
N1818      H1821   1.046       .  S
N1818      H1822   1.045       .  S
C1823      C1824   1.424       .  A
C1823      C1828   1.407       .  A
C1823      H1830   1.077       .  S
C1824      C1825   1.429       .  A
C1825      C1826   1.425       .  A
C1825      N1832   1.430       .  S
C1826      C1827   1.407       .  A
C1826      H1831   1.083       .  S
C1827      C1828   1.404       .  A
C1828      N1829   1.439       .  S
N1829      H1833   1.045       .  S
N1829      H1834   1.046       .  S
N1832      H1835   1.045       .  S
N1832      H1836   1.046       .  S
C1837      C1838   1.416       .  A
C1837      C1842   1.424       .  A
C1837      H1844   1.083       .  S
C1838      C1839   1.450       .  A
C1839      C1840   1.414       .  A
C1839      N1846   1.432       .  S
C1840      C1841   1.393       .  A
C1840      H1845   1.084       .  S
C1841      C1842   1.420       .  A
C1842      N1843   1.431       .  S
N1843      H1847   1.046       .  S
N1843      H1848   1.045       .  S
N1846      H1849   1.046       .  S
N1846      H1850   1.046       .  S
C1851      C1852   1.399       .  A
C1851      C1856   1.411       .  A
C1851      H1858   1.084       .  S
C1852      C1853   1.424       .  A
C1853      C1854   1.425       .  A
C1853      N1860   1.438       .  S
C1854      C1855   1.420       .  A
C1854      H1859   1.079       .  S
C1855      C1856   1.434       .  A
C1856      N1857   1.433       .  S
N1857      H1861   1.046       .  S
N1857      H1862   1.046       .  S
N1860      H1863   1.044       .  S
N1860      H1864   1.045       .  S
C1865      C1866   1.400       .  A
C1865      C1870   1.392       .  A
C1865      H1872   1.084       .  S
C1866      C1867   1.409       .  A
C1867      C1868   1.383       .  A
C1867      N1874   1.434       .  S
C1868      C1869   1.419       .  A
C1868      H1873   1.079       .  S
C1869      C1870   1.422       .  A
C1870      N1871   1.430       .  S
N1871      H1875   1.046       .  S
N1871      H1876   1.046       .  S
N1874      H1877   1.045       .  S
N1874      H1878   1.045       .  S
C1879      C1880   1.414       .  A
C1879      C1884   1.408       .  A
C1879      H1886   1.080       .  S
C1880      C1881   1.426       .  A
C1881      C1882   1.394       .  A
C1881      N1888   1.432       .  S
C1882      C1883   1.392       .  A
C1882      H1887   1.085       .  S
C1883      C1884   1.408       .  A
C1884      N1885   1.438       .  S
N1885      H1889   1.046       .  S
N1885      H1890   1.046   1_554  S
N1888      H1891   1.045       .  S
N1888      H1892   1.046   1_554  S
C1893      C1894   1.423       .  A
C1893      C1898   1.401       .  A
C1893      H1900   1.081       .  S
C1894      C1895   1.433   1_556  A
C1895      C1896   1.393   1_554  A
C1895      N1902   1.433       .  S
C1896      C1897   1.390       .  A
C1896      H1901   1.085   1_556  S
C1897      C1898   1.396       .  A
C1898      N1899   1.438       .  S
N1899      H1903   1.046       .  S
N1899      H1904   1.046       .  S
N1902      H1905   1.045       .  S
N1902      H1906   1.046       .  S
C1907      C1908   1.410       .  A
C1907      C1912   1.398       .  A
C1907      H1914   1.079       .  S
C1908      C1909   1.423       .  A
C1909      C1910   1.404       .  A
C1909      N1916   1.433       .  S
C1910      C1911   1.398       .  A
C1910      H1915   1.084       .  S
C1911      C1912   1.408       .  A
C1912      N1913   1.439       .  S
N1913      H1917   1.046       .  S
N1913      H1918   1.045       .  S
N1916      H1919   1.046       .  S
N1916      H1920   1.045       .  S
C1921      C1922   1.419       .  A
C1921      C1926   1.395       .  A
C1921      H1928   1.079       .  S
C1922      C1923   1.422       .  A
C1923      C1924   1.401       .  A
C1923      N1930   1.433       .  S
C1924      C1925   1.398       .  A
C1924      H1929   1.084       .  S
C1925      C1926   1.400       .  A
C1926      N1927   1.440       .  S
N1927      H1931   1.046       .  S
N1927      H1932   1.045       .  S
N1930      H1933   1.045       .  S
N1930      H1934   1.046       .  S
C1935      C1936   1.407       .  A
C1935      C1940   1.396       .  A
C1935      H1942   1.080       .  S
C1936      C1937   1.425   1_554  A
C1937      C1938   1.406       .  A
C1937      N1944   1.433       .  S
C1938      C1939   1.405   1_556  A
C1938      H1943   1.083       .  S
C1939      C1940   1.424       .  A
C1940      N1941   1.432       .  S
N1941      H1945   1.046       .  S
N1941      H1946   1.044       .  S
N1944      H1947   1.046       .  S
N1944      H1948   1.045       .  S
C1949      C1950   1.405   1_556  A
C1949      C1954   1.380       .  A
C1949      H1956   1.074       .  S
C1950      C1951   1.429       .  A
C1951      C1952   1.406       .  A
C1951      N1958   1.432       .  S
C1952      C1953   1.398       .  A
C1952      H1957   1.084       .  S
C1953      C1954   1.411   1_554  A
C1954      N1955   1.433       .  S
N1955      H1959   1.037       .  S
N1955      H1960   1.046       .  S
N1958      H1961   1.046       .  S
N1958      H1962   1.046       .  S
C1963      C1964   1.423       .  A
C1963      C1968   1.406       .  A
C1963      H1970   1.078       .  S
C1964      C1965   1.425       .  A
C1965      C1966   1.414       .  A
C1965      N1972   1.432       .  S
C1966      C1967   1.405       .  A
C1966      H1971   1.084       .  S
C1967      C1968   1.401       .  A
C1968      N1969   1.433       .  S
N1969      H1973   1.046       .  S
N1969      H1974   1.046       .  S
N1972      H1975   1.046       .  S
N1972      H1976   1.045       .  S
C1977      C1978   1.419       .  A
C1977      C1982   1.412       .  A
C1977      H1984   1.079       .  S
C1978      C1979   1.432       .  A
C1979      C1980   1.410       .  A
C1979      N1986   1.432       .  S
C1980      C1981   1.398       .  A
C1980      H1985   1.084       .  S
C1981      C1982   1.405       .  A
C1982      N1983   1.432       .  S
N1983      H1987   1.045       .  S
N1983      H1988   1.046       .  S
N1986      H1989   1.046       .  S
N1986      H1990   1.045       .  S
C1991      C1992   1.404   1_545  A
C1991      C1996   1.395       .  A
C1991      H1998   1.080       .  S
C1992      C1993   1.427       .  A
C1993      C1994   1.419       .  A
C1993      N2000   1.432       .  S
C1994      C1995   1.408       .  A
C1994      H1999   1.083       .  S
C1995      C1996   1.427   1_565  A
C1996      N1997   1.427       .  S
N1997      H2001   1.040       .  S
N1997      H2002   1.045       .  S
N2000      H2003   1.046       .  S
N2000      H2004   1.045       .  S
C2005      C2006   1.411       .  A
C2005      C2010   1.411       .  A
C2005      H2012   1.080       .  S
C2006      C2007   1.432   1_565  A
C2007      C2008   1.426       .  A
C2007      N2014   1.432       .  S
C2008      C2009   1.407   1_545  A
C2008      H2013   1.083       .  S
C2009      C2010   1.421       .  A
C2010      N2011   1.434       .  S
N2011      H2015   1.046       .  S
N2011      H2016   1.046       .  S
N2014      H2017   1.046       .  S
N2014      H2018   1.045       .  S
C2019      C2020   1.408       .  A
C2019      C2024   1.406       .  A
C2019      H2026   1.083       .  S
C2020      C2021   1.408       .  A
C2021      C2022   1.410       .  A
C2021      N2028   1.432       .  S
C2022      C2023   1.426       .  A
C2022      H2027   1.078       .  S
C2023      C2024   1.421       .  A
C2024      N2025   1.432       .  S
N2025      H2029   1.046       .  S
N2025      H2030   1.045       .  S
N2028      H2031   1.045       .  S
N2028      H2032   1.046       .  S
C2033      C2034   1.406       .  A
C2033      C2038   1.413       .  A
C2033      H2040   1.084       .  S
C2034      C2035   1.414       .  A
C2035      C2036   1.399       .  A
C2035      N2042   1.433       .  S
C2036      C2037   1.413       .  A
C2036      H2041   1.084       .  S
C2037      C2038   1.428       .  A
C2038      N2039   1.431       .  S
N2039      H2043   1.046       .  S
N2039      H2044   1.046       .  S
N2042      H2045   1.046       .  S
N2042      H2046   1.046   1_554  S
C2047      C2048   1.412       .  A
C2047      C2052   1.406       .  A
C2047      H2054   1.080       .  S
C2048      C2049   1.431       .  A
C2049      C2050   1.414       .  A
C2049      N2056   1.432       .  S
C2050      C2051   1.400       .  A
C2050      H2055   1.084       .  S
C2051      C2052   1.424       .  A
C2052      N2053   1.435       .  S
N2053      H2057   1.043       .  S
N2053      H2058   1.046       .  S
N2056      H2059   1.045       .  S
N2056      H2060   1.046       .  S
C2061      C2062   1.413   1_556  A
C2061      C2066   1.390       .  A
C2061      H2068   1.084       .  S
C2062      C2063   1.431       .  A
C2063      C2064   1.397       .  A
C2063      N2070   1.432       .  S
C2064      C2065   1.397       .  A
C2064      H2069   1.084       .  S
C2065      C2066   1.408   1_554  A
C2066      N2067   1.434       .  S
N2067      H2071   1.046       .  S
N2067      H2072   1.045       .  S
N2070      H2073   1.046       .  S
N2070      H2074   1.046       .  S
C2075      C2076   1.399   1_554  A
C2075      C2080   1.387       .  A
C2075      H2082   1.084       .  S
C2076      C2077   1.406       .  A
C2077      C2078   1.397       .  A
C2077      N2084   1.437       .  S
C2078      C2079   1.415       .  A
C2078      H2083   1.079       .  S
C2079      C2080   1.421   1_556  A
C2080      N2081   1.431       .  S
N2081      H2085   1.046       .  S
N2081      H2086   1.046       .  S
N2084      H2087   1.043       .  S
N2084      H2088   1.046       .  S
C2089      C2090   1.413       .  A
C2089      C2094   1.387       .  A
C2089      H2096   1.081       .  S
C2090      C2091   1.418       .  A
C2091      C2092   1.401       .  A
C2091      N2098   1.431       .  S
C2092      C2093   1.399       .  A
C2092      H2097   1.084       .  S
C2093      C2094   1.407       .  A
C2094      N2095   1.433       .  S
N2095      H2099   1.044       .  S
N2095      H2100   1.045       .  S
N2098      H2101   1.045       .  S
N2098      H2102   1.045       .  S
C2103      C2104   1.408       .  A
C2103      C2108   1.404       .  A
C2103      H2110   1.084       .  S
C2104      C2105   1.414       .  A
C2105      C2106   1.420       .  A
C2105      N2112   1.431       .  S
C2106      C2107   1.425       .  A
C2106      H2111   1.079       .  S
C2107      C2108   1.423       .  A
C2108      N2109   1.435       .  S
N2109      H2113   1.046       .  S
N2109      H2114   1.046       .  S
N2112      H2115   1.046       .  S
N2112      H2116   1.045       .  S
C2117      C2118   1.403       .  A
C2117      C2122   1.417       .  A
C2117      H2124   1.084       .  S
C2118      C2119   1.411       .  A
C2119      C2120   1.404       .  A
C2119      N2126   1.439       .  S
C2120      C2121   1.421       .  A
C2120      H2125   1.081       .  S
C2121      C2122   1.430       .  A
C2122      N2123   1.431       .  S
N2123      H2127   1.046   1_655  S
N2123      H2128   1.045       .  S
N2126      H2129   1.044       .  S
N2126      H2130   1.046       .  S
C2131      C2132   1.405       .  A
C2131      C2136   1.399       .  A
C2131      H2138   1.082       .  S
C2132      C2133   1.424       .  A
C2133      C2134   1.426       .  A
C2133      N2140   1.437       .  S
C2134      C2135   1.422       .  A
C2134      H2139   1.078       .  S
C2135      C2136   1.425       .  A
C2136      N2137   1.433       .  S
N2137      H2141   1.046       .  S
N2137      H2142   1.046       .  S
N2140      H2143   1.041       .  S
N2140      H2144   1.045       .  S
C2145      C2146   1.431       .  A
C2145      C2150   1.412       .  A
C2145      H2152   1.078       .  S
C2146      C2147   1.417       .  A
C2147      C2148   1.413       .  A
C2147      N2154   1.433       .  S
C2148      C2149   1.418       .  A
C2148      H2153   1.082       .  S
C2149      C2150   1.412       .  A
C2150      N2151   1.432       .  S
N2151      H2155   1.045       .  S
N2151      H2156   1.045       .  S
N2154      H2157   1.046       .  S
N2154      H2158   1.045       .  S
C2159      C2160   1.430       .  A
C2159      C2164   1.405       .  A
C2159      H2166   1.076       .  S
C2160      C2161   1.427       .  A
C2161      C2162   1.394       .  A
C2161      N2168   1.433       .  S
C2162      C2163   1.407       .  A
C2162      H2167   1.084       .  S
C2163      C2164   1.407       .  A
C2164      N2165   1.438       .  S
N2165      H2169   1.046       .  S
N2165      H2170   1.040       .  S
N2168      H2171   1.041       .  S
N2168      H2172   1.043       .  S
C2173      C2174   1.424       .  A
C2173      C2178   1.394       .  A
C2173      H2180   1.080       .  S
C2174      C2175   1.432       .  A
C2175      C2176   1.403       .  A
C2175      N2182   1.434       .  S
C2176      C2177   1.401       .  A
C2176      H2181   1.082       .  S
C2177      C2178   1.402       .  A
C2178      N2179   1.434       .  S
N2179      H2183   1.046       .  S
N2179      H2184   1.046       .  S
N2182      H2185   1.040       .  S
N2182      H2186   1.044       .  S
C2187      C2188   1.398       .  A
C2187      C2192   1.393       .  A
C2187      H2194   1.084       .  S
C2188      C2189   1.415       .  A
C2189      C2190   1.399       .  A
C2189      N2196   1.439       .  S
C2190      C2191   1.411       .  A
C2190      H2195   1.078       .  S
C2191      C2192   1.435       .  A
C2192      N2193   1.433       .  S
N2193      H2197   1.043       .  S
N2193      H2198   1.040       .  S
N2196      H2199   1.046       .  S
N2196      H2200   1.044       .  S
C2201      C2202   1.412       .  A
C2201      C2206   1.399       .  A
C2201      H2208   1.082       .  S
C2202      C2203   1.433       .  A
C2203      C2204   1.412       .  A
C2203      N2210   1.431       .  S
C2204      C2205   1.400       .  A
C2204      H2209   1.084       .  S
C2205      C2206   1.411       .  A
C2206      N2207   1.438       .  S
N2207      H2211   1.046       .  S
N2207      H2212   1.045       .  S
N2210      H2213   1.046       .  S
N2210      H2214   1.046       .  S
C2215      C2216   1.426       .  A
C2215      C2220   1.424       .  A
C2215      H2222   1.081       .  S
C2216      C2217   1.418       .  A
C2217      C2218   1.404       .  A
C2217      N2224   1.432       .  S
C2218      C2219   1.415       .  A
C2218      H2223   1.079       .  S
C2219      C2220   1.412       .  A
C2220      N2221   1.436       .  S
N2221      H2225   1.045       .  S
N2221      H2226   1.046       .  S
N2224      H2227   1.046       .  S
N2224      H2228   1.046       .  S
C2229      C2230   1.407       .  A
C2229      C2234   1.401       .  A
C2229      H2236   1.081       .  S
C2230      C2231   1.420       .  A
C2231      C2232   1.415       .  A
C2231      N2238   1.431       .  S
C2232      C2233   1.419       .  A
C2232      H2237   1.083       .  S
C2233      C2234   1.425       .  A
C2234      N2235   1.433       .  S
N2235      H2239   1.046       .  S
N2235      H2240   1.046       .  S
N2238      H2241   1.046       .  S
N2238      H2242   1.045       .  S
C2243      C2244   1.395       .  A
C2243      C2248   1.401       .  A
C2243      H2250   1.084       .  S
C2244      C2245   1.407       .  A
C2245      C2246   1.389       .  A
C2245      N2252   1.433       .  S
C2246      C2247   1.414       .  A
C2246      H2251   1.079       .  S
C2247      C2248   1.429       .  A
C2248      N2249   1.433       .  S
N2249      H2253   1.046       .  S
N2249      H2254   1.046       .  S
N2252      H2255   1.046       .  S
N2252      H2256   1.044       .  S
C2257      C2258   1.393       .  A
C2257      C2262   1.398       .  A
C2257      H2264   1.085       .  S
C2258      C2259   1.414       .  A
C2259      C2260   1.407       .  A
C2259      N2266   1.438       .  S
C2260      C2261   1.416       .  A
C2260      H2265   1.079       .  S
C2261      C2262   1.428       .  A
C2262      N2263   1.433       .  S
N2263      H2267   1.046       .  S
N2263      H2268   1.046       .  S
N2266      H2269   1.044       .  S
N2266      H2270   1.046       .  S
C2271      C2272   1.392       .  A
C2271      C2276   1.396       .  A
C2271      H2278   1.085       .  S
C2272      C2273   1.415       .  A
C2273      C2274   1.406       .  A
C2273      N2280   1.439       .  S
C2274      C2275   1.415       .  A
C2274      H2279   1.078       .  S
C2275      C2276   1.430       .  A
C2276      N2277   1.433       .  S
N2277      H2281   1.046       .  S
N2277      H2282   1.046       .  S
N2280      H2283   1.044       .  S
N2280      H2284   1.046       .  S
C2285      C2286   1.416       .  A
C2285      C2290   1.401       .  A
C2285      H2292   1.077       .  S
C2286      C2287   1.427       .  A
C2287      C2288   1.397       .  A
C2287      N2294   1.433       .  S
C2288      C2289   1.395       .  A
C2288      H2293   1.085       .  S
C2289      C2290   1.411       .  A
C2290      N2291   1.440       .  S
N2291      H2295   1.046       .  S
N2291      H2296   1.043       .  S
N2294      H2297   1.045       .  S
N2294      H2298   1.046       .  S
C2299      C2300   1.411   1_565  A
C2299      C2304   1.427       .  A
C2299      H2306   1.083       .  S
C2300      C2301   1.413       .  A
C2301      C2302   1.397       .  A
C2301      N2308   1.434       .  S
C2302      C2303   1.417       .  A
C2302      H2307   1.076       .  S
C2303      C2304   1.429   1_545  A
C2304      N2305   1.432       .  S
N2305      H2309   1.045       .  S
N2305      H2310   1.046       .  S
N2308      H2311   1.046       .  S
N2308      H2312   1.046       .  S
C2313      C2314   1.401       .  A
C2313      C2318   1.416       .  A
C2313      H2320   1.084       .  S
C2314      C2315   1.403       .  A
C2315      C2316   1.399       .  A
C2315      N2322   1.433       .  S
C2316      C2317   1.424       .  A
C2316      H2321   1.084       .  S
C2317      C2318   1.432       .  A
C2318      N2319   1.429       .  S
N2319      H2323   1.045   1_545  S
N2319      H2324   1.046       .  S
N2322      H2325   1.046       .  S
N2322      H2326   1.043       .  S
C2327      C2328   1.418       .  A
C2327      C2332   1.396       .  A
C2327      H2334   1.083       .  S
C2328      C2329   1.430       .  A
C2329      C2330   1.412       .  A
C2329      N2336   1.430       .  S
C2330      C2331   1.400       .  A
C2330      H2335   1.084       .  S
C2331      C2332   1.409       .  A
C2332      N2333   1.440       .  S
N2333      H2337   1.046       .  S
N2333      H2338   1.046       .  S
N2336      H2339   1.046       .  S
N2336      H2340   1.046       .  S
C2341      C2342   1.402       .  A
C2341      C2346   1.423       .  A
C2341      H2348   1.083       .  S
C2342      C2343   1.419       .  A
C2343      C2344   1.403       .  A
C2343      N2350   1.438       .  S
C2344      C2345   1.411       .  A
C2344      H2349   1.082       .  S
C2345      C2346   1.438       .  A
C2346      N2347   1.430       .  S
N2347      H2351   1.046       .  S
N2347      H2352   1.046       .  S
N2350      H2353   1.046       .  S
N2350      H2354   1.046       .  S
C2355      C2356   1.411       .  A
C2355      C2360   1.408       .  A
C2355      H2362   1.084       .  S
C2356      C2357   1.404       .  A
C2357      C2358   1.393       .  A
C2357      N2364   1.433       .  S
C2358      C2359   1.420       .  A
C2358      H2363   1.083       .  S
C2359      C2360   1.422       .  A
C2360      N2361   1.431       .  S
N2361      H2365   1.046       .  S
N2361      H2366   1.046       .  S
N2364      H2367   1.045       .  S
N2364      H2368   1.046       .  S
C2369      C2370   1.419       .  A
C2369      C2374   1.412       .  A
C2369      H2376   1.078       .  S
C2370      C2371   1.435       .  A
C2371      C2372   1.396       .  A
C2371      N2378   1.433       .  S
C2372      C2373   1.393       .  A
C2372      H2377   1.086       .  S
C2373      C2374   1.414       .  A
C2374      N2375   1.438       .  S
N2375      H2379   1.045       .  S
N2375      H2380   1.042       .  S
N2378      H2381   1.046       .  S
N2378      H2382   1.046       .  S
C2383      C2384   1.407       .  A
C2383      C2388   1.420       .  A
C2383      H2390   1.083       .  S
C2384      C2385   1.421       .  A
C2385      C2386   1.396       .  A
C2385      N2392   1.436       .  S
C2386      C2387   1.415       .  A
C2386      H2391   1.075       .  S
C2387      C2388   1.429       .  A
C2388      N2389   1.432       .  S
N2389      H2393   1.045       .  S
N2389      H2394   1.045       .  S
N2392      H2395   1.042       .  S
N2392      H2396   1.046       .  S
C2397      C2398   1.401       .  A
C2397      C2402   1.394       .  A
C2397      H2404   1.084       .  S
C2398      C2399   1.401       .  A
C2399      C2400   1.400       .  A
C2399      N2406   1.433       .  S
C2400      C2401   1.418       .  A
C2400      H2405   1.083       .  S
C2401      C2402   1.423       .  A
C2402      N2403   1.434       .  S
N2403      H2407   1.046       .  S
N2403      H2408   1.046       .  S
N2406      H2409   1.046       .  S
N2406      H2410   1.046       .  S
C2411      C2412   1.405       .  A
C2411      C2416   1.409       .  A
C2411      H2418   1.084       .  S
C2412      C2413   1.445       .  A
C2413      C2414   1.420       .  A
C2413      N2420   1.432       .  S
C2414      C2415   1.398       .  A
C2414      H2419   1.084       .  S
C2415      C2416   1.422       .  A
C2416      N2417   1.430       .  S
N2417      H2421   1.046       .  S
N2417      H2422   1.046       .  S
N2420      H2423   1.046       .  S
N2420      H2424   1.046       .  S
