geometry optimzed in LAMMPS
_audit_creation_date              2020-11-30 
_audit_creation_method            'lammps2cif' 
_symmetry_space_group_name_H-M    'P1' 
_symmetry_Int_Tables_number       1 
_symmetry_cell_setting            triclinic 
loop_ 
_symmetry_equiv_pos_as_xyz 
  x,y,z 
_cell_length_a                    60.74727274 
_cell_length_b                    33.93155141287335 
_cell_length_c                    33.94776389845931 
_cell_angle_alpha                 89.71609160688872 
_cell_angle_beta                  89.58482032499748 
_cell_angle_gamma                 89.56682998449413 
loop_ 
_atom_site_label 
_atom_site_type_symbol 
_atom_site_fract_x 
_atom_site_fract_y 
_atom_site_fract_z 
_atom_site_charge 
C1          C  0.32351241  0.12140306  0.65260084     0.88000
C2          C  0.31965262  0.12024666  0.69741008    -0.52200
C3          C  0.31999721  0.15639459  0.71494712     0.10900
C4          C  0.32512947  0.19015307  0.68595054     0.21900
C5          C  0.30611561  0.15102397  0.63725199    -0.53000
C6          C  0.30718319  0.18726846  0.65474242     0.11000
C7          C  0.34570389  0.14205514  0.64718390    -0.52500
C8          C  0.34649265  0.17812692  0.66481355     0.11600
H9          H  0.31540199  0.09350002  0.71337750     0.16100
H10         H  0.32626030  0.21972502  0.69944315     0.01900
H11         H  0.29411553  0.14352854  0.61507974     0.16400
H12         H  0.35931126  0.12950478  0.63041334     0.16200
C13         C  0.32230561  0.27865737  0.08856313     0.88000
C14         C  0.31199659  0.28555513  0.04761848    -0.52200
C15         C  0.30957877  0.25170332  0.02613482     0.10900
C16         C  0.31773442  0.21448946  0.04796076     0.21900
C17         C  0.30727255  0.24785303  0.10868011    -0.53000
C18         C  0.30482859  0.21425049  0.08687117     0.11000
C19         C  0.34397777  0.25648989  0.08010151    -0.52500
C20         C  0.34153989  0.22281294  0.05905468     0.11600
H21         H  0.30675722  0.31432384  0.03701108     0.16100
H22         H  0.31605203  0.18642118  0.03183576     0.01900
H23         H  0.29932550  0.25253334  0.13699963     0.16400
H24         H  0.35973012  0.26554396  0.09176417     0.16200
In25       In  0.26150378  0.20195055  0.86392362     1.36900
C26         C  0.23086389  0.25282249  0.83947123     0.79100
O27         O  0.28212666  0.23108345  0.81665371    -0.59400
O28         O  0.28576260  0.16963223  0.82579357    -0.50300
C29         C  0.28578813  0.21396615  0.92820621     0.71800
O30         O  0.27248641  0.23947362  0.91532709    -0.45100
C31         C  0.23590701  0.13955876  0.87640813     0.76500
O32         O  0.24258439  0.25900300  0.86931665    -0.57000
O33         O  0.24905659  0.14214426  0.84783331    -0.47100
O34         O  0.23492961  0.22085144  0.82210242    -0.53400
C35         C  0.29102141  0.19930827  0.80562539     0.86600
O36         O  0.28655899  0.18274466  0.90842961    -0.55300
O37         O  0.23599018  0.16874823  0.89930219    -0.58600
C38         C  0.17517397  0.40863642  0.82535640     0.88000
C39         C  0.19222324  0.38112253  0.84485207    -0.52200
C40         C  0.19310496  0.34414489  0.82932656     0.10900
C41         C  0.17680968  0.33829924  0.79521843     0.21900
C42         C  0.18131231  0.40830867  0.78153395    -0.53000
C43         C  0.18268950  0.37150855  0.76570659     0.11000
C44         C  0.15330938  0.38675359  0.82811673    -0.52500
C45         C  0.15404577  0.34988521  0.81218688     0.11600
H46         H  0.20299235  0.39034576  0.86842999     0.16100
H47         H  0.17671774  0.30842389  0.78238973     0.01900
H48         H  0.18552192  0.43475441  0.76503122     0.16400
H49         H  0.13876928  0.39906977  0.84236384     0.16200
C50         C  0.16523801  0.24153192  0.41038712     0.88000
C51         C  0.18247590  0.26805607  0.39045275    -0.52200
C52         C  0.18339362  0.30510106  0.40548817     0.10900
C53         C  0.16695517  0.31227901  0.43954035     0.21900
C54         C  0.17098283  0.24236291  0.45418736    -0.53000
C55         C  0.17232748  0.27930531  0.46956807     0.11000
C56         C  0.14344556  0.26428879  0.40729637    -0.52500
C57         C  0.14425862  0.30143602  0.42279458     0.11600
H58         H  0.19336906  0.25813612  0.36693260     0.16100
H59         H  0.16717142  0.34253936  0.45152430     0.01900
H60         H  0.17509200  0.21599964  0.47098885     0.16400
H61         H  0.12893372  0.25219235  0.39350611     0.16200
In62       In  0.23647468  0.32074861  0.60972312     1.36900
C63         C  0.26715756  0.37213227  0.58745713     0.79100
O64         O  0.26441245  0.28803687  0.63738000    -0.59400
O65         O  0.24677468  0.25962832  0.59180375    -0.50300
C66         C  0.21352381  0.32832732  0.67667117     0.71800
O67         O  0.21657071  0.35667201  0.65321178    -0.45100
C68         C  0.20566333  0.32006547  0.55460126     0.76500
O69         O  0.25776173  0.37371265  0.62071539    -0.57000
O70         O  0.21185651  0.28952788  0.57275527    -0.47100
O71         O  0.26097484  0.34423712  0.56596747    -0.53400
C72         C  0.26215015  0.25763841  0.61650079     0.86600
O73         O  0.22214738  0.29638133  0.66591443    -0.55300
O74         O  0.21468399  0.35134931  0.56558777    -0.58600
C75         C  0.31530412  0.37857302  0.14763424     0.88000
C76         C  0.30881147  0.37784702  0.19164825    -0.52200
C77         C  0.31117842  0.41349184  0.21021021     0.10900
C78         C  0.32014402  0.44609142  0.18300424     0.21900
C79         C  0.30132669  0.41224376  0.13025692    -0.53000
C80         C  0.30365913  0.44739700  0.14913780     0.11000
C81         C  0.33913316  0.39441187  0.14667194    -0.52500
C82         C  0.34163343  0.42964727  0.16528464     0.11600
H83         H  0.30193618  0.35190897  0.20575984     0.16100
H84         H  0.32207656  0.47498667  0.19782437     0.01900
H85         H  0.28990863  0.40814944  0.10616704     0.16400
H86         H  0.35273216  0.38083257  0.13088634     0.16200
C87         C  0.32018889  0.03528187  0.57649944     0.88000
C88         C  0.31448940  0.03624506  0.53256543    -0.52200
C89         C  0.31509729  0.49115405  0.51749645     0.10900
C90         C  0.32144181  0.45748341  0.54616458     0.21900
C91         C  0.30590630  0.49885020  0.59769267    -0.53000
C92         C  0.30527714  0.46235969  0.58108035     0.11000
C93         C  0.34164660  0.01144259  0.57896370    -0.52500
C94         C  0.34415480  0.46882548  0.56225100     0.11600
H95         H  0.31093313  0.06338066  0.51663961     0.16100
H96         H  0.32178763  0.42767297  0.53329321     0.01900
H97         H  0.29524576  0.50730001  0.62209828     0.16400
H98         H  0.35619700  0.02222569  0.59369309     0.16200
In99       In  0.25638027  0.43741762  0.37152010     1.36900
C100        C  0.22472719  0.38975289  0.39738335     0.79100
O101        O  0.27838003  0.41320513  0.41876490    -0.59400
O102        O  0.27985434  0.47448758  0.40672365    -0.50300
C103        C  0.28056961  0.41242342  0.31040589     0.71800
O104        O  0.26913838  0.38961898  0.33146274    -0.45100
C105        C  0.22988821  0.49731176  0.35070734     0.76500
O106        O  0.23287682  0.38735611  0.36323855    -0.57000
O107        O  0.24244626  0.00903514  0.36886737    -0.47100
O108        O  0.23285539  0.41630752  0.41837346    -0.53400
C109        C  0.28626767  0.44607783  0.42794237     0.86600
O110        O  0.28037596  0.44790705  0.32156002    -0.55300
O111        O  0.23691104  0.47191318  0.32677294    -0.58600
C112        C  0.17471964  0.49622243  0.89882819     0.88000
C113        C  0.19188439  0.03454592  0.89810217    -0.52200
C114        C  0.19085627  0.07047298  0.91653661     0.10900
C115        C  0.17320157  0.07276214  0.94893975     0.21900
C116        C  0.18003942  0.49598897  0.94284315    -0.53000
C117        C  0.17905419  0.03813647  0.97674469     0.11000
C118        C  0.15256780  0.02549230  0.91029568    -0.52500
C119        C  0.15160409  0.06127116  0.92857047     0.11600
H120        H  0.20367057  0.02729244  0.87510741     0.16100
H121        H  0.17211662  0.10188718  0.96357453     0.01900
H122        H  0.18432074  0.46932760  0.95902336     0.16400
H123        H  0.13852020  0.50557670  0.88105986     0.16200
C124        C  0.16719900  0.15237122  0.33884427     0.88000
C125        C  0.18647433  0.12766345  0.35522690    -0.52200
C126        C  0.18809050  0.09062950  0.33971401     0.10900
C127        C  0.16999850  0.08187836  0.30923156     0.21900
C128        C  0.17059240  0.15197554  0.29408805    -0.53000
C129        C  0.17255644  0.11519651  0.27836111     0.11000
C130        C  0.14675502  0.12767921  0.34627015    -0.52500
C131        C  0.14797570  0.09078487  0.33053218     0.11600
H132        H  0.19808272  0.13883472  0.37655962     0.16100
H133        H  0.17036961  0.05178146  0.29689679     0.01900
H134        H  0.17285969  0.17864127  0.27669774     0.16400
H135        H  0.13262834  0.13869036  0.36274047     0.16200
In136      In  0.23517034  0.07968399  0.13171053     1.36900
C137        C  0.26611797  0.02500880  0.14605897     0.79100
O138        O  0.26194275  0.11503201  0.10342694    -0.59400
O139        O  0.24764444  0.13755995  0.15587309    -0.50300
C140        C  0.21029508  0.07626512  0.06689498     0.71800
O141        O  0.21416881  0.04652113  0.08821208    -0.45100
C142        C  0.20531669  0.07797930  0.18955141     0.76500
O143        O  0.25727641  0.02871957  0.11266454    -0.57000
O144        O  0.20971714  0.10887032  0.17035748    -0.47100
O145        O  0.25906520  0.04888720  0.17153921    -0.53400
C146        C  0.26156034  0.14230267  0.12856774     0.86600
O147        O  0.21897565  0.10747300  0.07881608    -0.55300
O148        O  0.21553761  0.04768273  0.17814325    -0.58600
C149        C  0.56845048  0.39169773  0.89691336     0.88000
C150        C  0.55175188  0.36342767  0.87857030    -0.52200
C151        C  0.55217295  0.32627226  0.89403468     0.10900
C152        C  0.56940447  0.32088806  0.92682641     0.21900
C153        C  0.56335606  0.39038595  0.94123638    -0.53000
C154        C  0.56348428  0.35325536  0.95682405     0.11000
C155        C  0.59085876  0.37122926  0.89267714    -0.52500
C156        C  0.59147181  0.33426799  0.90876784     0.11600
H157        H  0.54012979  0.37235562  0.85597311     0.16100
H158        H  0.57045729  0.29092025  0.93976334     0.01900
H159        H  0.55902521  0.41629253  0.95840068     0.16400
H160        H  0.60499983  0.38495280  0.87863786     0.16200
C161        C  0.57234134  0.23012036  0.32578151     0.88000
C162        C  0.55896668  0.26245188  0.34738180    -0.52200
C163        C  0.56282441  0.29975808  0.33336114     0.10900
C164        C  0.58007505  0.30112587  0.30022683     0.21900
C165        C  0.56672493  0.23626914  0.28213036    -0.53000
C166        C  0.57057069  0.27382755  0.26886163     0.11000
C167        C  0.59649580  0.24215144  0.32896470    -0.52500
C168        C  0.60057544  0.27937402  0.31613801     0.11600
H169        H  0.54688323  0.25594704  0.37015151     0.16100
H170        H  0.58328664  0.33130134  0.28883803     0.01900
H171        H  0.55864395  0.21401862  0.26463484     0.16400
H172        H  0.60929679  0.22286528  0.34051678     0.16200
In173      In  0.51331354  0.30325803  0.11465456     1.36900
C174        C  0.48978930  0.36947813  0.12569154     0.79100
O175        O  0.48470450  0.27362411  0.08699893    -0.59400
O176        O  0.49796895  0.24840406  0.13931295    -0.50300
C177        C  0.53453497  0.30891716  0.04631015     0.71800
O178        O  0.53873369  0.33070469  0.07518233    -0.45100
C179        C  0.54221179  0.28238770  0.16937515     0.76500
O180        O  0.50843957  0.36912250  0.10938229    -0.57000
O181        O  0.54048642  0.26447132  0.13725213    -0.47100
O182        O  0.48357143  0.33630557  0.13805039    -0.53400
C183        C  0.48378091  0.24643965  0.11251833     0.86600
O184        O  0.51987706  0.28363682  0.05266618    -0.55300
O185        O  0.52967568  0.31199961  0.17308417    -0.58600
C186        C  0.42619689  0.27906504  0.64958488     0.88000
C187        C  0.43167753  0.27794434  0.69364914    -0.52200
C188        C  0.43276250  0.24081435  0.70937320     0.10900
C189        C  0.42753478  0.20826352  0.67928107     0.21900
C190        C  0.44363263  0.25202993  0.63026324    -0.53000
C191        C  0.44438937  0.21486033  0.64579140     0.11000
C192        C  0.40448200  0.25693677  0.64606767    -0.52500
C193        C  0.40516193  0.21978278  0.66163256     0.11600
H194        H  0.43564900  0.30412086  0.71038439     0.16100
H195        H  0.42722172  0.17802686  0.69138650     0.01900
H196        H  0.45459947  0.26163474  0.60675682     0.16400
H197        H  0.39006630  0.26941962  0.63182496     0.16200
C198        C  0.41823773  0.11865641  0.08424848     0.88000
C199        C  0.42740314  0.11014304  0.04268783    -0.52200
C200        C  0.42960975  0.14307421  0.01947043     0.10900
C201        C  0.42213468  0.18132329  0.04041934     0.21900
C202        C  0.43380132  0.14964374  0.10130785    -0.53000
C203        C  0.43607587  0.18227046  0.07782286     0.11000
C204        C  0.39652440  0.14074244  0.07741044    -0.52500
C205        C  0.39855360  0.17385110  0.05483787     0.11600
H206        H  0.43248020  0.08098742  0.03314426     0.16100
H207        H  0.42352461  0.20879688  0.02300777     0.01900
H208        H  0.44239812  0.14544499  0.12893263     0.16400
H209        H  0.38119274  0.13236886  0.09167041     0.16200
In210      In  0.48588674  0.18270595  0.86189028     1.36900
C211        C  0.51484958  0.13043328  0.83445609     0.79100
O212        O  0.46266474  0.15968955  0.81610039    -0.59400
O213        O  0.46876209  0.22116172  0.81754965    -0.50300
C214        C  0.45774091  0.17530110  0.92224731     0.71800
O215        O  0.46893356  0.14653738  0.90953232    -0.45100
C216        C  0.51545440  0.23440859  0.88690679     0.76500
O217        O  0.50325125  0.12405132  0.86482345    -0.57000
O218        O  0.50322485  0.24085649  0.85770837    -0.47100
O219        O  0.51110664  0.16288261  0.81760778    -0.53400
C220        C  0.45916851  0.19307513  0.80079811     0.86600
O221        O  0.46062089  0.20702959  0.90363014    -0.55300
O222        O  0.51217860  0.20194072  0.90397740    -0.58600
C223        C  0.42984828  0.02220496  0.14581075     0.88000
C224        C  0.43782625  0.02335952  0.18877749    -0.52200
C225        C  0.43224792  0.48053205  0.20649674     0.10900
C226        C  0.42479429  0.44461890  0.18244497     0.21900
C227        C  0.44418324  0.47541463  0.12765803    -0.53000
C228        C  0.44219187  0.44161658  0.14960012     0.11000
C229        C  0.40682674  0.00364163  0.14809809    -0.52500
C230        C  0.40332600  0.45759899  0.16204703     0.11600
H231        H  0.44380205  0.05002747  0.20254359     0.16100
H232        H  0.42299294  0.41717886  0.20013444     0.01900
H233        H  0.45573599  0.47843685  0.10332656     0.16400
H234        H  0.39230109  0.01569098  0.13412652     0.16200
C235        C  0.42437032  0.36654660  0.57469648     0.88000
C236        C  0.42956247  0.36465104  0.53059786    -0.52200
C237        C  0.43063587  0.40045821  0.51239998     0.10900
C238        C  0.42558302  0.43533879  0.54030433     0.21900
C239        C  0.44186631  0.39425722  0.59143357    -0.53000
C240        C  0.44250486  0.43048452  0.57377071     0.11000
C241        C  0.40264988  0.38942829  0.57762313    -0.52500
C242        C  0.40315446  0.42548444  0.55943942     0.11600
H243        H  0.43337438  0.33726674  0.51544987     0.16100
H244        H  0.42541943  0.46456631  0.52584049     0.01900
H245        H  0.45289939  0.38588200  0.61513358     0.16400
H246        H  0.38834099  0.37821476  0.59327313     0.16200
In247      In  0.48955953  0.43551597  0.36060973     1.36900
C248        C  0.51483552  0.37081781  0.35751943     0.79100
O249        O  0.47927683  0.41472288  0.30064705    -0.59400
O250        O  0.46587143  0.46861867  0.32045151    -0.50300
C251        C  0.46029794  0.43606030  0.41933232     0.71800
O252        O  0.46696028  0.40472580  0.40319936    -0.45100
C253        C  0.51909716  0.48854748  0.38243954     0.76500
O254        O  0.49564135  0.37083363  0.37200786    -0.57000
O255        O  0.50733205  0.98343389  0.35727848    -0.47100
O256        O  0.52101866  0.40382344  0.34425195    -0.53400
C257        C  0.46659800  0.44322176  0.29362858     0.86600
O258        O  0.46780430  0.46709940  0.40422079    -0.55300
O259        O  0.51240717  0.46117981  0.40451227    -0.58600
C260        C  0.56462214  0.48082072  0.82437399     0.88000
C261        C  0.55576616  0.00551893  0.84315084    -0.52200
C262        C  0.55458934  0.04210766  0.82681241     0.10900
C263        C  0.57143120  0.04857962  0.79322864     0.21900
C264        C  0.55808631  0.48199213  0.78082582    -0.53000
C265        C  0.56659076  0.01484061  0.76411167     0.11000
C266        C  0.59504699  0.00165339  0.82791612    -0.52500
C267        C  0.59404473  0.03833965  0.81123651     0.11600
H268        H  0.54464132  0.99605448  0.86650336     0.16100
H269        H  0.57115691  0.07855993  0.78042496     0.01900
H270        H  0.55426315  0.45575237  0.76406389     0.16400
H271        H  0.60107310  0.49126431  0.83938838     0.16200
C272        C  0.57175918  0.13751417  0.39534571     0.88000
C273        C  0.55674363  0.10761524  0.37470694    -0.52200
C274        C  0.55529027  0.07208864  0.39375562     0.10900
C275        C  0.56946397  0.06955878  0.43129936     0.21900
C276        C  0.56264717  0.13995233  0.43739525    -0.53000
C277        C  0.56139410  0.10464103  0.45653036     0.11000
C278        C  0.59402165  0.11647661  0.39937546    -0.52500
C279        C  0.59290531  0.08075799  0.41802430     0.11600
H280        H  0.54715813  0.11413059  0.34864849     0.16100
H281        H  0.56911430  0.04056917  0.44624193     0.01900
H282        H  0.55729308  0.16748455  0.45076779     0.16400
H283        H  0.60919973  0.12851103  0.38746119     0.16200
In284      In  0.50857878  0.06583680  0.61526326     1.36900
C285        C  0.48125258  0.12237232  0.63912826     0.79100
O286        O  0.48316626  0.04502262  0.57285334    -0.59400
O287        O  0.48817299  0.01130662  0.62487196    -0.50300
C288        C  0.53542381  0.06831602  0.55333033     0.71800
O289        O  0.52618840  0.09863932  0.56737028    -0.45100
C290        C  0.53689179  0.05822483  0.67425019     0.76500
O291        O  0.49274328  0.12568081  0.60816436    -0.57000
O292        O  0.52733237  0.02917556  0.65907984    -0.47100
O293        O  0.48404098  0.09062762  0.65787140    -0.53400
C294        C  0.47767791  0.01550610  0.59313047     0.86600
O295        O  0.53157991  0.03687718  0.57191470    -0.55300
O296        O  0.53235182  0.09100303  0.65865906    -0.58600
C297        C  0.06630529  0.15147984  0.90475080     0.88000
C298        C  0.05053702  0.11809723  0.89370938    -0.52200
C299        C  0.05289237  0.08495398  0.91625993     0.10900
C300        C  0.07054413  0.08817609  0.94789183     0.21900
C301        C  0.06182833  0.15840841  0.94883045    -0.53000
C302        C  0.06381151  0.12517279  0.97166374     0.11000
C303        C  0.08948556  0.13252904  0.90278906    -0.52500
C304        C  0.09161884  0.09942807  0.92565071     0.11600
H305        H  0.03892254  0.12017308  0.86959567     0.16100
H306        H  0.07231468  0.06053012  0.96509177     0.01900
H307        H  0.05616637  0.18650570  0.96046553     0.16400
H308        H  0.10270127  0.14349059  0.88413512     0.16200
C309        C  0.06876100  0.49959926  0.33347261     0.88000
C310        C  0.05011431  0.01510242  0.36295286    -0.52200
C311        C  0.04983858  0.05253412  0.34816916     0.10900
C312        C  0.06764061  0.05984308  0.31660463     0.21900
C313        C  0.06215210  0.50450727  0.28988570    -0.53000
C314        C  0.06317658  0.02872353  0.28527973     0.11000
C315        C  0.08972154  0.00995204  0.34988145    -0.52500
C316        C  0.08957175  0.04738897  0.33508245     0.11600
H317        H  0.03830178  0.00495778  0.38487510     0.16100
H318        H  0.06799431  0.09040696  0.30484825     0.01900
H319        H  0.05656705  0.48003240  0.27223631     0.16400
H320        H  0.10573725  0.50370666  0.34843011     0.16200
In321      In  0.01344157  0.06625029  0.12455979     1.36900
C322        C  0.98469806  0.12179678  0.14634530     0.79100
O323        O  0.99724147  0.03537476  0.07435757    -0.59400
O324        O  0.98728007  0.02134513  0.13280350    -0.50300
C325        C  0.04362806  0.08478902  0.07053545     0.71800
O326        O  0.03136738  0.11052070  0.08627966    -0.45100
C327        C  0.03581779  0.03574957  0.18422970     0.76500
O328        O  0.98787963  0.11211295  0.11100321    -0.57000
O329        O  0.02476896  0.01499305  0.16105437    -0.47100
O330        O  0.99703218  0.10447329  0.17063928    -0.53400
C331        C  0.98485976  0.01549143  0.09651464     0.86600
O332        O  0.04145538  0.05059145  0.08440729    -0.55300
O333        O  0.03612511  0.07215807  0.17597160    -0.58600
C334        C  0.91532561  0.37585219  0.09875403     0.88000
C335        C  0.92076393  0.37291937  0.05437754    -0.52200
C336        C  0.92285292  0.40866623  0.03592699     0.10900
C337        C  0.91813030  0.44403243  0.06327829     0.21900
C338        C  0.93308775  0.40289464  0.11568235    -0.53000
C339        C  0.93469447  0.43873036  0.09721449     0.11000
C340        C  0.89415659  0.40017757  0.10059316    -0.52500
C341        C  0.89540776  0.43564419  0.08173819     0.11600
H342        H  0.92378597  0.34523487  0.03930688     0.16100
H343        H  0.91846809  0.47295322  0.04812412     0.01900
H344        H  0.94361351  0.39420713  0.14002408     0.16400
H345        H  0.87938634  0.39012527  0.11567930     0.16200
C346        C  0.92389861  0.01958677  0.65197912     0.88000
C347        C  0.92936561  0.01736800  0.69606382    -0.52200
C348        C  0.92816573  0.48970561  0.72470531     0.10900
C349        C  0.92502970  0.45694739  0.69387431     0.21900
C350        C  0.94314670  0.50158621  0.64801362    -0.53000
C351        C  0.94351091  0.46424389  0.66331648     0.11000
C352        C  0.90176401  0.99865833  0.64813236    -0.52500
C353        C  0.90345909  0.46771707  0.67262699     0.11600
H354        H  0.93339137  0.04298921  0.71356746     0.16100
H355        H  0.92448633  0.42685603  0.70643254     0.01900
H356        H  0.95513350  0.51171089  0.62638184     0.16400
H357        H  0.88745841  0.01223235  0.63448577     0.16200
In358      In  0.98130074  0.44528224  0.88036267     1.36900
C359        C  0.00966028  0.38455307  0.87653938     0.79100
O360        O  0.95578868  0.47420294  0.84171872    -0.59400
O361        O  0.96823872  0.41820892  0.82500191    -0.50300
C362        C  0.95623897  0.44396144  0.94577459     0.71800
O363        O  0.95392721  0.41950599  0.91833560    -0.45100
C364        C  0.00735449  0.50832278  0.87891849     0.76500
O365        O  0.99420514  0.38616726  0.90144140    -0.57000
O366        O  0.98686959  0.01194227  0.88492446    -0.47100
O367        O  0.01055297  0.41385498  0.85363189    -0.53400
C368        C  0.95604167  0.44710705  0.81646779     0.86600
O369        O  0.97081121  0.46935118  0.93927107    -0.55300
O370        O  0.01023402  0.47967708  0.90223842    -0.58600
C371        C  0.07517708  0.25227748  0.84914176     0.88000
C372        C  0.05882596  0.28338894  0.86500495    -0.52200
C373        C  0.05716782  0.31636066  0.84165572     0.10900
C374        C  0.07212175  0.31504613  0.80497117     0.21900
C375        C  0.06733162  0.24390855  0.80680479    -0.53000
C376        C  0.06523812  0.27694200  0.78357410     0.11000
C377        C  0.09692905  0.27424500  0.84371819    -0.52500
C378        C  0.09546420  0.30700401  0.82050882     0.11600
H379        H  0.04949219  0.27923341  0.89204102     0.16100
H380        H  0.07113224  0.34244946  0.78725853     0.01900
H381        H  0.06268939  0.21479472  0.79682196     0.16400
H382        H  0.11206594  0.26518600  0.85807957     0.16200
C383        C  0.06570159  0.40768441  0.40435781     0.88000
C384        C  0.04872945  0.38117298  0.38414697    -0.52200
C385        C  0.04709052  0.34424492  0.40027088     0.10900
C386        C  0.06269155  0.33758490  0.43558926     0.21900
C387        C  0.05856798  0.40767808  0.44794452    -0.53000
C388        C  0.05675448  0.37105312  0.46451832     0.11000
C389        C  0.08731759  0.38428383  0.40337361    -0.52500
C390        C  0.08584060  0.34756340  0.41985966     0.11600
H391        H  0.03864102  0.39094669  0.35962667     0.16100
H392        H  0.06214100  0.30790619  0.44887332     0.01900
H393        H  0.05447344  0.43442917  0.46394738     0.16400
H394        H  0.10230617  0.39572079  0.39017429     0.16200
In395      In  0.00844129  0.31708078  0.62590522     1.36900
C396        C  0.97990458  0.37070456  0.65356898     0.79100
O397        O  0.98121985  0.29984085  0.58496369    -0.59400
O398        O  0.99198696  0.25727402  0.62652854    -0.50300
C399        C  0.03385293  0.32674679  0.56170285     0.71800
O400        O  0.02275301  0.35428749  0.57698407    -0.45100
C401        C  0.03670005  0.30940720  0.68636597     0.76500
O402        O  0.99327035  0.37790540  0.62593037    -0.57000
O403        O  0.02537553  0.28096469  0.67422495    -0.48700
O404        O  0.98151380  0.33642780  0.66776106    -0.53400
C405        C  0.97892415  0.26567942  0.59888759     0.86600
O406        O  0.03266827  0.29444497  0.58010689    -0.55300
O407        O  0.03397983  0.34080835  0.66705864    -0.58600
C408        C  0.92521041  0.26855933  0.13866201     0.88000
C409        C  0.93270075  0.27305926  0.18151101    -0.52200
C410        C  0.93287906  0.23869532  0.20275849     0.10900
C411        C  0.92525039  0.20278225  0.17871697     0.21900
C412        C  0.94030318  0.23660617  0.12140934    -0.53000
C413        C  0.94059991  0.20248496  0.14244219     0.11000
C414        C  0.90242965  0.24915739  0.14141625    -0.52500
C415        C  0.90237685  0.21455999  0.16251341     0.11600
H416        H  0.93824427  0.30088503  0.19349341     0.16100
H417        H  0.92525080  0.17430333  0.19479177     0.01900
H418        H  0.95052986  0.24099067  0.09536403     0.16400
H419        H  0.88798173  0.26105662  0.12681199     0.16200
C420        C  0.92326961  0.11096050  0.58156871     0.88000
C421        C  0.92836501  0.11247462  0.53735740    -0.52200
C422        C  0.92938735  0.14964841  0.52199220     0.10900
C423        C  0.92463198  0.18219035  0.55266254     0.21900
C424        C  0.94090554  0.13709282  0.60027471    -0.53000
C425        C  0.94168475  0.17454179  0.58550753     0.11000
C426        C  0.90155903  0.13378098  0.58630518    -0.52500
C427        C  0.90214926  0.17105914  0.57083417     0.11600
H428        H  0.93182240  0.08632549  0.51996532     0.16100
H429        H  0.92458180  0.21248357  0.54062472     0.01900
H430        H  0.95206287  0.12666448  0.62298485     0.16400
H431        H  0.88711545  0.12142652  0.60059290     0.16200
In432      In  0.98166794  0.19795962  0.36598870     1.36900
C433        C  0.01133537  0.25106283  0.38793164     0.79100
O434        O  0.96040354  0.22598743  0.41312217    -0.59400
O435        O  0.96187442  0.16370211  0.41005704    -0.50300
C436        C  0.95552680  0.20352437  0.30310352     0.71800
O437        O  0.96685716  0.23190333  0.31532339    -0.45100
C438        C  0.01010772  0.14123734  0.34625884     0.76500
O439        O  0.99760755  0.25808229  0.36097795    -0.57000
O440        O  0.99973011  0.14107733  0.37853989    -0.47100
O441        O  0.00979010  0.21733311  0.40320977    -0.53400
C442        C  0.95477297  0.19357360  0.42813757     0.86600
O443        O  0.95678118  0.17287251  0.32406877    -0.55300
O444        O  0.00563839  0.16991013  0.32393275    -0.58600
C445        C  0.82380252  0.36523056  0.65496136     0.88000
C446        C  0.81831299  0.36607793  0.69928448    -0.52200
C447        C  0.81707298  0.40317487  0.71473294     0.10900
C448        C  0.82226788  0.43588275  0.68450346     0.21900
C449        C  0.80630520  0.39232372  0.63612924    -0.53000
C450        C  0.80536345  0.42939234  0.65151193     0.11000
C451        C  0.84556404  0.38749301  0.65103710    -0.52500
C452        C  0.84483209  0.42447783  0.66679239     0.11600
H453        H  0.81449306  0.33982988  0.71638867     0.16100
H454        H  0.82247422  0.46587719  0.69707076     0.01900
H455        H  0.79510249  0.38255939  0.61345185     0.16400
H456        H  0.86012967  0.37505305  0.63702463     0.16200
C457        C  0.82286681  0.02540228  0.08305620     0.88000
C458        C  0.81851967  0.02715509  0.03861593    -0.52200
C459        C  0.80874834  0.49692882  0.02656996     0.10900
C460        C  0.81534363  0.46170858  0.05289475     0.21900
C461        C  0.79460870  0.49456059  0.10478141    -0.53000
C462        C  0.79730612  0.45999503  0.08453242     0.11000
C463        C  0.84512675  0.00439169  0.08700984    -0.52500
C464        C  0.83605609  0.47455992  0.07459274     0.11600
H465        H  0.81389022  0.05414680  0.02330253     0.16100
H466        H  0.81788735  0.43341447  0.03730586     0.01900
H467        H  0.78263695  0.49863540  0.12826555     0.16400
H468        H  0.85874159  0.01661479  0.10337356     0.16200
In469      In  0.76033614  0.45247062  0.86653311     1.36900
C470        C  0.73094855  0.51123881  0.86528111     0.79100
O471        O  0.77292747  0.47643313  0.80868901    -0.59400
O472        O  0.78699513  0.42340836  0.83023205    -0.50300
C473        C  0.78529503  0.45649827  0.93044135     0.71800
O474        O  0.78264807  0.48536387  0.90744862    -0.45100
C475        C  0.73381813  0.39077036  0.87073071     0.76500
O476        O  0.74212543  0.00252155  0.87978213    -0.57000
O477        O  0.74597998  0.39764411  0.84134293    -0.47100
O478        O  0.72850722  0.47969411  0.84643228    -0.53400
C479        C  0.78610050  0.44826689  0.80267402     0.86600
O480        O  0.77617632  0.42520857  0.91963630    -0.55300
O481        O  0.73526808  0.41542311  0.89832557    -0.58600
C482        C  0.67620233  0.40138392  0.33491624     0.88000
C483        C  0.69121489  0.36804832  0.35077826    -0.52200
C484        C  0.68771784  0.33216626  0.33337103     0.10900
C485        C  0.66955688  0.33339163  0.30203818     0.21900
C486        C  0.68024678  0.40137020  0.29024063    -0.53000
C487        C  0.67717911  0.36558018  0.27298255     0.11000
C488        C  0.65268422  0.38641022  0.33996710    -0.52500
C489        C  0.64904443  0.35098271  0.32274984     0.11600
H490        H  0.70367903  0.37310244  0.37282176     0.16100
H491        H  0.66656287  0.30457289  0.28801104     0.01900
H492        H  0.68619364  0.42688989  0.27403691     0.16400
H493        H  0.63980853  0.40302573  0.35501673     0.16200
C494        C  0.67732702  0.24832004  0.89501042     0.88000
C495        C  0.69316654  0.28149507  0.88309519    -0.52200
C496        C  0.69093368  0.31487486  0.90534133     0.10900
C497        C  0.67313704  0.31158843  0.93747499     0.21900
C498        C  0.68163151  0.24135054  0.93904754    -0.53000
C499        C  0.68006188  0.27466918  0.96134095     0.11000
C500        C  0.65437959  0.26722728  0.89291800    -0.52500
C501        C  0.65201988  0.30013289  0.91551009     0.11600
H502        H  0.70531689  0.27798769  0.85981667     0.16100
H503        H  0.67103696  0.33871781  0.95528385     0.01900
H504        H  0.68720905  0.21321928  0.95088588     0.16400
H505        H  0.64142427  0.25627203  0.87412944     0.16200
In506      In  0.73182287  0.31691619  0.12220279     1.36900
C507        C  0.76439453  0.26751155  0.14221296     0.79100
O508        O  0.75929930  0.35285001  0.09686291    -0.59400
O509        O  0.73835246  0.37917374  0.14001301    -0.50300
C510        C  0.70994201  0.30968187  0.05428824     0.71800
O511        O  0.71067729  0.28212274  0.07931305    -0.45100
C512        C  0.70300314  0.31934355  0.18152124     0.76500
O513        O  0.75202276  0.26108841  0.11321333    -0.57000
O514        O  0.70589925  0.34762199  0.15803953    -0.47100
O515        O  0.76014200  0.29889949  0.16034737    -0.53400
C516        C  0.75461083  0.38302157  0.11708588     0.86600
O517        O  0.72031156  0.33987861  0.06398548    -0.55300
O518        O  0.71351414  0.28845104  0.17284386    -0.58600
C519        C  0.82190241  0.11350439  0.15676983     0.88000
C520        C  0.81706820  0.11502902  0.20109575    -0.52200
C521        C  0.81582437  0.15232845  0.21585934     0.10900
C522        C  0.82041497  0.18482893  0.18489307     0.21900
C523        C  0.80407148  0.13993204  0.13809517    -0.53000
C524        C  0.80325563  0.17739421  0.15238673     0.11000
C525        C  0.84348896  0.13608525  0.15144060    -0.52500
C526        C  0.84288316  0.17344073  0.16641765     0.11600
H527        H  0.81368025  0.08900030  0.21882619     0.16100
H528        H  0.82039009  0.21494718  0.19725860     0.01900
H529        H  0.79279921  0.12963817  0.11575385     0.16400
H530        H  0.85787081  0.12359703  0.13681349     0.16200
C531        C  0.82284511  0.27625056  0.58195454     0.88000
C532        C  0.81755176  0.27563027  0.53772523    -0.52200
C533        C  0.81580018  0.23863900  0.52236371     0.10900
C534        C  0.82049996  0.20555030  0.55268195     0.21900
C535        C  0.80498482  0.25049866  0.60120104    -0.53000
C536        C  0.80368718  0.21334131  0.58622356     0.11000
C537        C  0.84421067  0.25253500  0.58581299    -0.52500
C538        C  0.84320458  0.21554914  0.57017546     0.11600
H539        H  0.81418919  0.30210823  0.52060925     0.16100
H540        H  0.82019460  0.17555915  0.54005923     0.01900
H541        H  0.79410373  0.26097488  0.62451412     0.16400
H542        H  0.85872168  0.26413010  0.60002393     0.16200
In543      In  0.75859815  0.19294622  0.36969471     1.36900
C544        C  0.73200737  0.25631333  0.36676679     0.79100
O545        O  0.76677049  0.21500325  0.30862201    -0.59400
O546        O  0.78690323  0.16994754  0.33259888    -0.50300
C547        C  0.78300423  0.19780764  0.43513479     0.71800
O548        O  0.78582379  0.22030786  0.40590501    -0.45100
C549        C  0.73466323  0.12671201  0.37443599     0.76500
O550        O  0.74867272  0.25421368  0.38857273    -0.57000
O551        O  0.75226790  0.12878570  0.35470082    -0.47100
O552        O  0.72857499  0.22559665  0.34693518    -0.53400
C553        C  0.78280696  0.19193820  0.30351980     0.86600
O554        O  0.76819777  0.17259125  0.43049435    -0.55300
O555        O  0.72909320  0.15864195  0.39074126    -0.58600
C556        C  0.66874085  0.14608907  0.84550293     0.88000
C557        C  0.68584722  0.11904253  0.86500028    -0.52200
C558        C  0.68946612  0.08458037  0.84551279     0.10900
C559        C  0.67504660  0.07993098  0.80857011     0.21900
C560        C  0.67690723  0.15134904  0.80272801    -0.53000
C561        C  0.68048670  0.11661593  0.78325622     0.11000
C562        C  0.64796798  0.12107560  0.84225902    -0.52500
C563        C  0.65115351  0.08645727  0.82267570     0.11600
H564        H  0.69478689  0.12703625  0.89135018     0.16100
H565        H  0.67714816  0.05125468  0.79373311     0.01900
H566        H  0.68040107  0.17990101  0.78960739     0.16400
H567        H  0.63222286  0.12980507  0.85493075     0.16200
C568        C  0.67730931  0.48691141  0.41130525     0.88000
C569        C  0.69258142  0.01620423  0.39494417    -0.52200
C570        C  0.69114094  0.05249568  0.41260296     0.10900
C571        C  0.67422996  0.05419022  0.44638799     0.21900
C572        C  0.68092417  0.48511101  0.45589859    -0.53000
C573        C  0.68132328  0.02064749  0.47455655     0.11000
C574        C  0.65368736  0.00479872  0.41054501    -0.52500
C575        C  0.65244536  0.04090732  0.42809439     0.11600
H576        H  0.70374123  0.00971275  0.37070385     0.16100
H577        H  0.67286855  0.08367175  0.46010020     0.01900
H578        H  0.68549551  0.45815390  0.47130169     0.16400
H579        H  0.64170934  0.49506588  0.38906792     0.16200
In580      In  0.73582322  0.07203796  0.62658468     1.36900
C581        C  0.76560007  0.12333999  0.59972824     0.79100
O582        O  0.75998448  0.04777888  0.67062149    -0.59400
O583        O  0.75386188  0.01436674  0.61929197    -0.50300
C584        C  0.70816624  0.07991841  0.68750718     0.71800
O585        O  0.71894915  0.10854861  0.67367064    -0.45100
C586        C  0.70813744  0.06450319  0.56657534     0.76500
O587        O  0.75373247  0.13025089  0.62964773    -0.57000
O588        O  0.71754263  0.03549530  0.58279661    -0.47100
O589        O  0.76195867  0.09078640  0.58355520    -0.53400
C590        C  0.76441636  0.01729598  0.65097969     0.86600
O591        O  0.71115011  0.04787312  0.66962605    -0.55300
O592        O  0.71228885  0.09733059  0.58191736    -0.58600
C593        C  0.69047147  0.02569820  0.51474340    -0.14900
C594        C  0.69436738  0.06091740  0.53115716    -0.30100
H595        H  0.69616062  0.99924755  0.52986719     0.14100
H596        H  0.68901683  0.08801454  0.51709410     0.14700
C597        C  0.69146434  0.11558602  0.74387569    -0.14900
C598        C  0.69386289  0.08239587  0.72274104    -0.30100
H599        H  0.69889671  0.14262444  0.73303970     0.14100
H600        H  0.68610081  0.05532319  0.73218153     0.14700
C601        C  0.72197804  0.08965968  0.37897151    -0.14900
C602        C  0.70411502  0.08834661  0.40260165    -0.30100
H603        H  0.72792698  0.06332183  0.36429958     0.14100
H604        H  0.69901710  0.11523692  0.41746051     0.14700
C605        C  0.78687375  0.18517530  0.60132018    -0.14900
C606        C  0.78256748  0.15043835  0.58432984    -0.30100
H607        H  0.77733166  0.19387395  0.62711714     0.14100
H608        H  0.79151832  0.14111245  0.55826734     0.14700
C609        C  0.80729081  0.23246739  0.48183399    -0.14900
C610        C  0.79522483  0.20082644  0.47250221    -0.30100
H611        H  0.80873497  0.25652158  0.46074328     0.14100
H612        H  0.79234451  0.17796442  0.49433290     0.14700
C613        C  0.80795274  0.15928818  0.25665640    -0.14900
C614        C  0.79492988  0.19008445  0.26579260    -0.30100
H615        H  0.81032553  0.13583324  0.27816323     0.14100
H616        H  0.79104295  0.21213225  0.24363605     0.14700
C617        C  0.78633070  0.20594824  0.13803414    -0.14900
C618        C  0.78233893  0.24092884  0.15502904    -0.30100
H619        H  0.77615987  0.19704727  0.11347276     0.14100
H620        H  0.79184903  0.25033473  0.18005154     0.14700
C621        C  0.68040157  0.21176896  0.87029292    -0.14900
C622        C  0.66498755  0.18370724  0.86815274    -0.30100
H623        H  0.69571676  0.20805408  0.85393003     0.14100
H624        H  0.64948896  0.18756939  0.88386877     0.14700
C625        C  0.68862008  0.27567209  0.00229158    -0.14900
C626        C  0.69837347  0.30806384  0.01629915    -0.30100
H627        H  0.68904052  0.24852352  0.01938352     0.14100
H628        H  0.69924103  0.33444037  0.99819229     0.14700
C629        C  0.67922265  0.44147754  0.35332355    -0.14900
C630        C  0.67838294  0.44659393  0.39251176    -0.30100
H631        H  0.68077881  0.46705279  0.33413897     0.14100
H632        H  0.67731465  0.42079799  0.41152230     0.14700
C633        C  0.70096319  0.29545799  0.33982118    -0.14900
C634        C  0.71820837  0.29243967  0.36436074    -0.30100
H635        H  0.69668056  0.27006794  0.32217060     0.14100
H636        H  0.72297185  0.31724506  0.38229193     0.14700
C637        C  0.68385990  0.35870327  0.23151473    -0.14900
C638        C  0.69002490  0.32303587  0.21807308    -0.30100
H639        H  0.68673354  0.38456143  0.21321006     0.14100
H640        H  0.68861841  0.29700181  0.23649152     0.14700
C641        C  0.71574932  0.02960449  0.83400653    -0.14900
C642        C  0.70675540  0.05631803  0.85842268    -0.30100
H643        H  0.71896316  0.57114346  0.87910414     0.14100
H644        H  0.71267124  0.05834971  0.88847948     0.14700
C645        C  0.71927870  0.35633556  0.87213239    -0.14900
C646        C  0.70510988  0.35021414  0.90204307    -0.30100
H647        H  0.72036125  0.33596336  0.84773536     0.14100
H648        H  0.70384478  0.37184571  0.92542762     0.14700
C649        C  0.82242676  0.06590067  0.10128545    -0.14900
C650        C  0.82258357  0.07211117  0.14032702    -0.30100
H651        H  0.82189087  0.09126472  0.08161057     0.14100
H652        H  0.82246541  0.04707889  0.16040519     0.14700
C653        C  0.78454036  0.42335017  0.09045788    -0.14900
C654        C  0.76690483  0.42016792  0.11419463    -0.30100
H655        H  0.78975353  0.39788609  0.07336929     0.14100
H656        H  0.76108493  0.44501418  0.13143337     0.14700
C657        C  0.80207776  0.49367596  0.98466503    -0.14900
C658        C  0.79687172  0.45898704  0.96822810    -0.30100
H659        H  0.79902421  0.52081885  0.96836949     0.14100
H660        H  0.79854084  0.43165386  0.98454005     0.14700
C661        C  0.82450430  0.32402646  0.63797162    -0.14900
C662        C  0.82419392  0.31738206  0.59885856    -0.30100
H663        H  0.82404751  0.29909083  0.65813476     0.14100
H664        H  0.82389590  0.34233331  0.57868164     0.14700
C665        C  0.78802819  0.45806504  0.63909908    -0.14900
C666        C  0.78373582  0.49191104  0.65817984    -0.30100
H667        H  0.77781839  0.45018197  0.61410127     0.14100
H668        H  0.78859881  0.99276599  0.69237701     0.14700
C669        C  0.80853482  0.41021385  0.75521583    -0.14900
C670        C  0.79846929  0.44413821  0.76546361    -0.30100
H671        H  0.80838491  0.38545993  0.77568742     0.14100
H672        H  0.79718204  0.46834690  0.74464914     0.14700
C673        C  0.86200890  0.18718056  0.57033018    -0.14900
C674        C  0.88317531  0.19891431  0.57107697    -0.30100
H675        H  0.85825733  0.15606582  0.56798388     0.14100
H676        H  0.88696383  0.23007950  0.56950196     0.14700
C677        C  0.93702411  0.15568585  0.48082414    -0.14900
C678        C  0.94215510  0.19091809  0.46528342    -0.30100
H679        H  0.94051738  0.12932448  0.46371577     0.14100
H680        H  0.93904023  0.21795283  0.48126176     0.14700
C681        C  0.88293571  0.18827687  0.16662161    -0.14900
C682        C  0.86186644  0.20095956  0.16439962    -0.30100
H683        H  0.88624516  0.15729476  0.17237537     0.14100
H684        H  0.85828867  0.23227871  0.16238183     0.14700
C685        C  0.94238743  0.23728239  0.24309736    -0.14900
C686        C  0.94268911  0.20497810  0.26623728    -0.30100
H687        H  0.95046888  0.26375216  0.25339010     0.14100
H688        H  0.93448663  0.17829505  0.25735687     0.14700
C689        C  0.96212955  0.23842503  0.58359843    -0.14900
C690        C  0.95826535  0.20307609  0.60020072    -0.30100
H691        H  0.95287780  0.24815733  0.55815804     0.14100
H692        H  0.96802492  0.19412888  0.62547882     0.14700
C693        C  0.02792989  0.27933973  0.40161708    -0.14900
C694        C  0.03083787  0.31517033  0.38534121    -0.30100
H695        H  0.03778772  0.26966611  0.42627592     0.14100
H696        H  0.02065974  0.32388702  0.36054648     0.14700
C697        C  0.04723707  0.36585408  0.50486378    -0.14900
C698        C  0.04643072  0.33122156  0.52439342    -0.30100
H699        H  0.03973978  0.39167726  0.51841871     0.14100
H700        H  0.05422888  0.30506755  0.51232354     0.14700
C701        C  0.05138225  0.30781116  0.72111293    -0.14900
C702        C  0.05385079  0.27583570  0.74451216    -0.30100
H703        H  0.05944670  0.33511664  0.72831304     0.14100
H704        H  0.04598205  0.24851879  0.73612813     0.14700
C705        C  0.02520174  0.35082558  0.87430011    -0.14900
C706        C  0.04191597  0.35033590  0.84807281    -0.30100
H707        H  0.02239876  0.32594526  0.89379461     0.14100
H708        H  0.04399796  0.37552281  0.82857397     0.14700
C709        C  0.92360512  0.06129097  0.63624102    -0.14900
C710        C  0.92261015  0.06929213  0.59750679    -0.30100
H711        H  0.92468088  0.08546083  0.65700231     0.14100
H712        H  0.92222411  0.04499313  0.57678686     0.14700
C713        C  0.88482119  0.43975114  0.66976918    -0.14900
C714        C  0.86372512  0.45195771  0.66738036    -0.30100
H715        H  0.88853259  0.40850734  0.67232146     0.14100
H716        H  0.85989452  0.48322190  0.66884455     0.14700
C717        C  0.96057406  0.43498987  0.65084985    -0.14900
C718        C  0.96334699  0.39943528  0.66794819    -0.30100
H719        H  0.97132466  0.44321312  0.62647556     0.14100
H720        H  0.95313870  0.39037803  0.69257328     0.14700
C721        C  0.93469929  0.48319311  0.76632378    -0.14900
C722        C  0.94432913  0.44959477  0.77867171    -0.30100
H723        H  0.93416801  0.50840606  0.78592837     0.14100
H724        H  0.94612645  0.42470910  0.75899524     0.14700
C725        C  0.91304692  0.33714450  0.12092862    -0.14900
C726        C  0.92658908  0.30637129  0.11490519    -0.30100
H727        H  0.90003038  0.33442155  0.14290317     0.14100
H728        H  0.93940080  0.30880529  0.09253303     0.14700
C729        C  0.87640889  0.46306889  0.07918011    -0.14900
C730        C  0.85585411  0.44920061  0.07582068    -0.30100
H731        H  0.87941552  0.49457247  0.07860761     0.14100
H732        H  0.85331193  0.41778334  0.07223901     0.14700
C733        C  0.93162591  0.41197135  0.99495802    -0.14900
C734        C  0.94372897  0.44300906  0.98324837    -0.30100
H735        H  0.93033517  0.38658234  0.97576842     0.14100
H736        H  0.94642311  0.46721176  0.00326506     0.14700
C737        C  0.95578460  0.17018674  0.13151942    -0.14900
C738        C  0.96778352  0.15072016  0.15840547    -0.30100
H739        H  0.95895688  0.16543923  0.10034893     0.14100
H740        H  0.96567309  0.15702243  0.18955527     0.14700
C741        C  0.95164043  0.46790661  0.10892399    -0.14900
C742        C  0.95646456  0.50043418  0.08778586    -0.30100
H743        H  0.96121924  0.46131651  0.13510246     0.14100
H744        H  0.96543410  0.98810844  0.04976057     0.14700
C745        C  0.06811287  0.45734354  0.34857025    -0.14900
C746        C  0.06785718  0.44899274  0.38749914    -0.30100
H747        H  0.06662643  0.43357612  0.32748076     0.14100
H748        H  0.06867237  0.47318070  0.40827158     0.14700
C749        C  0.03275208  0.08186498  0.35964058    -0.14900
C750        C  0.02652744  0.11110804  0.33517869    -0.30100
H751        H  0.02469109  0.07858324  0.38812870     0.14100
H752        H  0.03368479  0.11350692  0.30591454     0.14700
C753        C  0.04639571  0.01862015  0.21935796    -0.14900
C754        C  0.05696577  0.04145696  0.24501978    -0.30100
H755        H  0.04357231  0.98771501  0.22577835     0.14100
H756        H  0.05901136  0.07252691  0.23808622     0.14700
C757        C  0.07788698  0.21662071  0.87603526    -0.14900
C758        C  0.06294194  0.18775715  0.87893661    -0.30100
H759        H  0.09292173  0.21392770  0.89300613     0.14100
H760        H  0.04820557  0.18969338  0.86104950     0.14700
C761        C  0.01901576  0.04865998  0.90081507    -0.14900
C762        C  0.04039234  0.04830938  0.91033798    -0.30100
H763        H  0.01009709  0.07645048  0.89863023     0.14100
H764        H  0.04894524  0.02044846  0.91494032     0.14700
C765        C  0.05814169  0.09234665  0.03645643    -0.14900
C766        C  0.05547301  0.12400937  0.01299039    -0.30100
H767        H  0.06908201  0.06849548  0.02788171     0.14100
H768        H  0.04469810  0.14788810  0.02256216     0.14700
C769        C  0.61213352  0.05395071  0.42318633    -0.14900
C770        C  0.63285551  0.06728871  0.42643996    -0.30100
H771        H  0.60898981  0.02254656  0.42489471     0.14100
H772        H  0.63572838  0.09872506  0.42841407     0.14700
C773        C  0.55129936  0.10242956  0.49634235    -0.14900
C774        C  0.54878761  0.06895755  0.51698038    -0.30100
H775        H  0.54457333  0.12967434  0.50834313     0.14100
H776        H  0.55530665  0.04119064  0.50626196     0.14700
C777        C  0.61215079  0.06740517  0.81333924    -0.14900
C778        C  0.63352109  0.05702786  0.81674913    -0.30100
H779        H  0.60760025  0.09837938  0.81180821     0.14100
H780        H  0.63840262  0.02628137  0.81453487     0.14700
C781        C  0.55650973  0.01971175  0.72463254    -0.14900
C782        C  0.55138288  0.05486765  0.70871955    -0.30100
H783        H  0.55129132  0.99314152  0.70971309     0.14100
H784        H  0.55650695  0.08202870  0.72229222     0.14700
C785        C  0.53264547  0.01178446  0.40371300    -0.14900
C786        C  0.53987059  0.04108840  0.38020495    -0.30100
H787        H  0.53829310  0.00926960  0.43381741     0.14100
H788        H  0.53323901  0.04391541  0.35067337     0.14700
C789        C  0.45845402  0.46069243  0.58689190    -0.14900
C790        C  0.46167682  0.49539587  0.56854159    -0.30100
H791        H  0.46803528  0.45384726  0.61300350     0.14100
H792        H  0.45263850  0.50317520  0.54223423     0.14700
C793        C  0.43941005  0.40307428  0.47161099    -0.14900
C794        C  0.44614801  0.43669566  0.45472528    -0.30100
H795        H  0.44274541  0.37542799  0.45656095     0.14100
H796        H  0.44338225  0.46485547  0.46889749     0.14700
C797        C  0.45396639  0.44578438  0.25679596    -0.14900
C798        C  0.44200454  0.47759507  0.24635135    -0.30100
H799        H  0.45565865  0.42119989  0.23663533     0.14100
H800        H  0.45245382  0.00880529  0.26309367     0.14700
C801        C  0.53764619  0.07072031  0.84036267    -0.14900
C802        C  0.53177243  0.10283388  0.81972687    -0.30100
H803        H  0.52922797  0.06438204  0.86803781     0.14100
H804        H  0.53952873  0.10959465  0.79167069     0.14700
C805        C  0.43211714  0.06113771  0.12385132    -0.14900
C806        C  0.41514531  0.08269444  0.11008286    -0.30100
H807        H  0.44876199  0.07120451  0.11776611     0.14100
H808        H  0.39840617  0.07496633  0.11773050     0.14700
C809        C  0.44121842  0.14179615  0.98055863    -0.14900
C810        C  0.44294521  0.17357574  0.95686354    -0.30100
H811        H  0.44974730  0.11473165  0.97247878     0.14100
H812        H  0.43421917  0.20047854  0.96365008     0.14700
C813        C  0.42526988  0.32018444  0.63243561    -0.14900
C814        C  0.42375013  0.32611132  0.59339768    -0.30100
H815        H  0.42653764  0.34526720  0.65201222     0.14100
H816        H  0.42313757  0.30063153  0.57416381     0.14700
C817        C  0.46055263  0.18491682  0.63178523    -0.14900
C818        C  0.46557668  0.15257150  0.65293523    -0.30100
H819        H  0.46886443  0.19008222  0.60376730     0.14100
H820        H  0.45809279  0.14747048  0.68157885     0.14700
C821        C  0.44195756  0.23415877  0.74938031    -0.14900
C822        C  0.44581301  0.19827561  0.76498821    -0.30100
H823        H  0.44739708  0.25998212  0.76534106     0.14100
H824        H  0.44040481  0.17180678  0.75038068     0.14700
C825        C  0.46762036  0.21448530  0.11105090    -0.14900
C826        C  0.45147783  0.21512917  0.08432928    -0.30100
H827        H  0.46953936  0.19000049  0.13137190     0.14100
H828        H  0.45022357  0.24006612  0.06426985     0.14700
C829        C  0.47634600  0.40578810  0.12902294    -0.14900
C830        C  0.45602212  0.40560351  0.14498815    -0.30100
H831        H  0.48338156  0.43303640  0.11802183     0.14100
H832        H  0.44961643  0.37835159  0.15730409     0.14700
C833        C  0.56809192  0.18882665  0.34080909    -0.14900
C834        C  0.57405677  0.17823727  0.37747025    -0.30100
H835        H  0.56105106  0.16760062  0.32090840     0.14100
H836        H  0.58215886  0.20000664  0.39563287     0.14700
C837        C  0.62306465  0.29563510  0.31669296    -0.14900
C838        C  0.62666726  0.33411369  0.32175320    -0.30100
H839        H  0.63682127  0.27508584  0.31544512     0.14100
H840        H  0.61279925  0.35387846  0.32687696     0.14700
C841        C  0.52861374  0.33468402  0.35562589    -0.14900
C842        C  0.54963735  0.33561825  0.34292382    -0.30100
H843        H  0.52091662  0.30682218  0.36294162     0.14100
H844        H  0.55673721  0.36379486  0.33465599     0.14700
C845        C  0.55665586  0.26791374  0.20086766    -0.14900
C846        C  0.56108888  0.29013562  0.23222364    -0.30100
H847        H  0.56249700  0.23763667  0.19938600     0.14100
H848        H  0.55624798  0.32103728  0.23230072     0.14700
C849        C  0.56785670  0.43285738  0.87995838    -0.14900
C850        C  0.56636458  0.43965058  0.84101286    -0.30100
H851        H  0.56774438  0.45764673  0.90010196     0.14100
H852        H  0.56582119  0.41491921  0.82085170     0.14700
C853        C  0.63166591  0.32457233  0.91623153    -0.14900
C854        C  0.61158099  0.30940088  0.90982126    -0.30100
H855        H  0.63327622  0.35567191  0.92285638     0.14100
H856        H  0.60956068  0.27777649  0.90720756     0.14700
C857        C  0.53239298  0.26219322  0.90013568    -0.14900
C858        C  0.53604797  0.29634940  0.88108711    -0.30100
H859        H  0.54175371  0.25408752  0.92596926     0.14100
H860        H  0.52612434  0.30358985  0.85548746     0.14700
C861        C  0.55633700  0.34575486  0.99779836    -0.14900
C862        C  0.54519929  0.31316797  0.00764910    -0.30100
H863        H  0.55797116  0.36938610  0.01905577     0.14100
H864        H  0.54192111  0.29082127  0.98582047     0.14700
C865        C  0.10850456  0.07443222  0.33545567    -0.14900
C866        C  0.12960237  0.06226115  0.33279464    -0.30100
H867        H  0.10462503  0.10568590  0.33439747     0.14100
H868        H  0.13342540  0.03112537  0.32963629     0.14700
C869        C  0.18091412  0.11055492  0.23743336    -0.14900
C870        C  0.19068960  0.07747376  0.22436725    -0.30100
H871        H  0.18197869  0.13709708  0.21945445     0.14100
H872        H  0.19019981  0.05055880  0.24153409     0.14700
C873        C  0.11147817  0.07383242  0.92691743    -0.14900
C874        C  0.13209522  0.08789142  0.92691039    -0.30100
H875        H  0.10887312  0.04239965  0.93048979     0.14100
H876        H  0.13475463  0.11949084  0.92750368     0.14700
C877        C  0.18800326  0.04192288  0.01721997    -0.14900
C878        C  0.19740809  0.07511201  0.03016985    -0.30100
H879        H  0.18920586  0.01532056  0.03509072     0.14100
H880        H  0.19712817  0.10165866  0.01226307     0.14700
C881        C  0.21215825  0.03191230  0.32867688    -0.14900
C882        C  0.20645166  0.06336838  0.35052955    -0.30100
H883        H  0.20332322  0.02518392  0.30201468     0.14100
H884        H  0.21595004  0.07011674  0.37661734     0.14700
C885        C  0.38427178  0.45351675  0.55938107    -0.14900
C886        C  0.36323519  0.44133752  0.56069881    -0.30100
H887        H  0.38785821  0.48471744  0.55696864     0.14100
H888        H  0.35967533  0.41008349  0.55921493     0.14700
C889        C  0.30065206  0.45044724  0.46245868    -0.14900
C890        C  0.30562718  0.48588323  0.47746711    -0.30100
H891        H  0.30504472  0.42356009  0.47782707     0.14100
H892        H  0.30055122  0.51226290  0.46156129     0.14700
C893        C  0.36255188  0.45220361  0.16516749    -0.14900
C894        C  0.38257598  0.43476004  0.16486967    -0.30100
H895        H  0.36133420  0.48413127  0.16605993     0.14100
H896        H  0.38392668  0.40295714  0.16792293     0.14700
C897        C  0.28960457  0.48240584  0.14207930    -0.14900
C898        C  0.26800872  0.47911218  0.13470626    -0.30100
H899        H  0.29665275  0.51123884  0.14718354     0.14100
H900        H  0.26061379  0.45022766  0.13208707     0.14700
C901        C  0.30285092  0.42359193  0.25038132    -0.14900
C902        C  0.29219333  0.39853260  0.27454134    -0.30100
H903        H  0.30418858  0.45424725  0.25910686     0.14100
H904        H  0.29047488  0.36776850  0.26677804     0.14700
C905        C  0.28389341  0.40050655  0.57392380    -0.14900
C906        C  0.28948492  0.43206961  0.59529502    -0.30100
H907        H  0.29095964  0.39578489  0.54493993     0.14100
H908        H  0.28140330  0.43699303  0.62352471     0.14700
C909        C  0.16481528  0.20027539  0.39408209    -0.14900
C910        C  0.16529594  0.19345484  0.35519366    -0.30100
H911        H  0.16572450  0.17544036  0.41437876     0.14100
H912        H  0.16499487  0.21824362  0.33479414     0.14700
C913        C  0.10437566  0.31883293  0.42132525    -0.14900
C914        C  0.12559529  0.32994006  0.42239817    -0.30100
H915        H  0.10025612  0.28780067  0.42303236     0.14100
H916        H  0.12958330  0.36098045  0.42444312     0.14700
C917        C  0.19969359  0.33378667  0.39039749    -0.14900
C918        C  0.20721285  0.36367737  0.41206555    -0.30100
H919        H  0.20681418  0.32847297  0.36141027     0.14100
H920        H  0.20112701  0.36845799  0.44175510     0.14700
C921        C  0.19026156  0.31908432  0.52141064    -0.14900
C922        C  0.18201264  0.28479490  0.50903977    -0.30100
H923        H  0.18778851  0.34609674  0.50488065     0.14100
H924        H  0.18506047  0.25831108  0.52642874     0.14700
C925        C  0.17425459  0.44951252  0.84245411    -0.14900
C926        C  0.17436449  0.45550170  0.88149166    -0.30100
H927        H  0.17446683  0.47470658  0.82255301     0.14100
H928        H  0.17482228  0.43030309  0.90136460     0.14700
C929        C  0.11411587  0.33431197  0.81377961    -0.14900
C930        C  0.13529164  0.32214647  0.81386085    -0.30100
H931        H  0.11020799  0.36519452  0.80873508     0.14100
H932        H  0.13915219  0.29088689  0.81511073     0.14700
C933        C  0.19203007  0.36578068  0.72566916    -0.14900
C934        C  0.20138470  0.33177155  0.71417974    -0.30100
H935        H  0.19302328  0.39138495  0.70638664     0.14100
H936        H  0.20128546  0.30615742  0.73333650     0.14700
C937        C  0.21379496  0.28047243  0.82536472    -0.14900
C938        C  0.20937236  0.31458453  0.84380998    -0.30100
H939        H  0.20517825  0.27247128  0.79882907     0.14100
H940        H  0.21864423  0.32194475  0.86999448     0.14700
C941        C  0.22165503  0.10500166  0.88183984    -0.14900
C942        C  0.20566373  0.10441050  0.90925265    -0.30100
H943        H  0.22427088  0.08020010  0.86233418     0.14100
H944        H  0.20325086  0.13012629  0.92778028     0.14700
C945        C  0.32661365  0.31560695  0.11232799    -0.14900
C946        C  0.31079892  0.33980668  0.12642139    -0.30100
H947        H  0.34365693  0.32194592  0.11843901     0.14100
H948        H  0.29370002  0.33166357  0.12227542     0.14700
C949        C  0.35937883  0.19360145  0.05280779    -0.14900
C950        C  0.38071981  0.20352061  0.05093232    -0.30100
H951        H  0.35472175  0.16279241  0.05154982     0.14100
H952        H  0.38537013  0.23428067  0.04871701     0.14700
C953        C  0.29082781  0.17973242  0.09629606    -0.14900
C954        C  0.27598234  0.17723538  0.12566897    -0.30100
H955        H  0.29223419  0.15520695  0.07595866     0.14100
H956        H  0.27385448  0.20102136  0.14659295     0.14700
C957        C  0.29819439  0.25066315  0.98735298    -0.14900
C958        C  0.29925775  0.21885139  0.96376541    -0.30100
H959        H  0.28804681  0.27576364  0.97891498     0.14100
H960        H  0.31011976  0.19443131  0.97066437     0.14700
C961        C  0.32267421  0.08101758  0.63392704    -0.14900
C962        C  0.32164943  0.07585816  0.59469897    -0.30100
H963        H  0.32234864  0.05530041  0.65312158     0.14100
H964        H  0.32125161  0.10154423  0.57547577     0.14700
C965        C  0.36549562  0.20500446  0.66307694    -0.14900
C966        C  0.38641157  0.19219981  0.66102614    -0.30100
H967        H  0.36208317  0.23625593  0.66649615     0.14100
H968        H  0.39000220  0.16080687  0.66166248     0.14700
C969        C  0.29245113  0.22145167  0.64731223    -0.14900
C970        C  0.27621856  0.22234516  0.62074829    -0.30100
H971        H  0.29517546  0.24735042  0.66527378     0.14100
H972        H  0.27301028  0.19721174  0.60212239     0.14700
C973        C  0.30506035  0.19676434  0.77020076    -0.14900
C974        C  0.31180174  0.16171016  0.75591874    -0.30100
H975        H  0.30734832  0.22373196  0.75355580     0.14100
H976        H  0.30860774  0.13518125  0.77304869     0.14700
C977        C  0.32211685  0.61289306  0.65529507     0.88000
C978        C  0.31380885  0.61108589  0.69822868    -0.52200
C979        C  0.31215928  0.64702661  0.71611719     0.10900
C980        C  0.31935072  0.68135808  0.68924496     0.21900
C981        C  0.30610835  0.64194728  0.63503240    -0.53000
C982        C  0.30474729  0.67797209  0.65261220     0.11000
C983        C  0.34415369  0.63465133  0.65719343    -0.52500
C984        C  0.34257544  0.67064677  0.67497808     0.11600
H985        H  0.30871996  0.58393505  0.71259852     0.16100
H986        H  0.31898403  0.71046634  0.70337613     0.01900
H987        H  0.29637210  0.63455800  0.60943828     0.16400
H988        H  0.35931030  0.62319215  0.64438950     0.16200
C989        C  0.31643467  0.77072673  0.09376212     0.88000
C990        C  0.31165231  0.77736628  0.04986139    -0.52200
C991        C  0.31273447  0.74383919  0.02767579     0.10900
C992        C  0.31933993  0.70690643  0.05181259     0.21900
C993        C  0.30035727  0.73834740  0.10658411    -0.53000
C994        C  0.30180256  0.70492500  0.08442768     0.11000
C995        C  0.33931787  0.75098208  0.09496205    -0.52500
C996        C  0.34086750  0.71763263  0.07268598     0.11600
H997        H  0.30629282  0.80562477  0.03801199     0.16100
H998        H  0.32077395  0.67913620  0.03498678     0.01900
H999        H  0.28889097  0.74181080  0.13100175     0.16400
H1000       H  0.35273829  0.76165811  0.11282889     0.16200
In1001     In  0.25937362  0.70407367  0.87057824     1.36900
C1002       C  0.23224092  0.76144782  0.84646060     0.79100
O1003       O  0.28557148  0.72434850  0.82805941    -0.59400
O1004       O  0.27418877  0.66554432  0.82374339    -0.50300
C1005       C  0.28714071  0.70886071  0.93079517     0.71800
O1006       O  0.27752754  0.73864998  0.91648025    -0.45100
C1007       C  0.22961068  0.65127538  0.89322909     0.76500
O1008       O  0.24130838  0.76190038  0.87971097    -0.57000
O1009       O  0.24100637  0.64756053  0.86234364    -0.47100
O1010       O  0.23728684  0.73217711  0.82560762    -0.53400
C1011       C  0.28663099  0.69191227  0.81009887     0.86600
O1012       O  0.28315657  0.67701376  0.91345526    -0.55300
O1013       O  0.23353136  0.68182206  0.91274047    -0.58600
C1014       C  0.17718715  0.91861302  0.83713808     0.88000
C1015       C  0.19439413  0.89090170  0.85605836    -0.52200
C1016       C  0.19536077  0.85422781  0.83981336     0.10900
C1017       C  0.17901412  0.84877156  0.80582141     0.21900
C1018       C  0.18325476  0.91892986  0.79307384    -0.53000
C1019       C  0.18465420  0.88232252  0.77652391     0.11000
C1020       C  0.15535802  0.89618039  0.83967901    -0.52500
C1021       C  0.15630891  0.85948970  0.82324916     0.11600
H1022       H  0.20504465  0.89966123  0.87999133     0.16100
H1023       H  0.17891998  0.81887514  0.79314675     0.01900
H1024       H  0.18732434  0.94566771  0.77694085     0.16400
H1025       H  0.14078460  0.90787894  0.85431061     0.16200
C1026       C  0.17714855  0.74698238  0.41267016     0.88000
C1027       C  0.19248696  0.77284047  0.38743981    -0.52200
C1028       C  0.19261626  0.81147392  0.39822007     0.10900
C1029       C  0.17679203  0.82090010  0.43263758     0.21900
C1030       C  0.18438227  0.75416962  0.45535404    -0.53000
C1031       C  0.18415776  0.79315061  0.46588677     0.11000
C1032       C  0.15434533  0.76655152  0.40977241    -0.52500
C1033       C  0.15419544  0.80542700  0.42020790     0.11600
H1034       H  0.20307058  0.76117810  0.36428779     0.16100
H1035       H  0.17623105  0.85237688  0.44131421     0.01900
H1036       H  0.18996896  0.73053784  0.47452500     0.16400
H1037       H  0.13981543  0.75105724  0.40002774     0.16200
In1038     In  0.23884978  0.82403049  0.62245041     1.36900
C1039       C  0.26545803  0.87926233  0.59280845     0.79100
O1040       O  0.26550986  0.80323520  0.66298034    -0.59400
O1041       O  0.25863714  0.76873065  0.61263856    -0.50300
C1042       C  0.21344750  0.83628111  0.68585507     0.71800
O1043       O  0.21794613  0.86363386  0.66183958    -0.45100
C1044       C  0.21046521  0.80109292  0.56788067     0.76500
O1045       O  0.25557878  0.88324647  0.62540092    -0.57000
O1046       O  0.21854321  0.77802184  0.59306235    -0.47100
O1047       O  0.26148611  0.84747465  0.57538506    -0.53400
C1048       C  0.26975818  0.77256611  0.64353187     0.86600
O1049       O  0.22130517  0.80319751  0.67666159    -0.55300
O1050       O  0.21578592  0.83670266  0.57197006    -0.58600
C1051       C  0.32617982  0.87428511  0.14015437     0.88000
C1052       C  0.31860710  0.87009681  0.18345594    -0.52200
C1053       C  0.31657742  0.90524439  0.20297344     0.10900
C1054       C  0.32320548  0.94109458  0.17730094     0.21900
C1055       C  0.30977918  0.90352634  0.12160090    -0.53000
C1056       C  0.30790028  0.93847208  0.14121845     0.11000
C1057       C  0.34786163  0.89648673  0.14218322    -0.52500
C1058       C  0.34654846  0.93120635  0.16194475     0.11600
H1059       H  0.31425630  0.84208964  0.19688757     0.16100
H1060       H  0.32275074  0.96996168  0.19215728     0.01900
H1061       H  0.29998128  0.89660405  0.09593948     0.16400
H1062       H  0.36297684  0.88572039  0.12861033     0.16200
C1063       C  0.32250297  0.52704123  0.57817708     0.88000
C1064       C  0.31601291  0.52763266  0.53442341    -0.52200
C1065       C  0.31288137  0.99992909  0.51564324     0.10900
C1066       C  0.31773708  0.96568124  0.54471539     0.21900
C1067       C  0.30252394  0.00875466  0.59527222    -0.53000
C1068       C  0.30121178  0.97215095  0.57896960     0.11000
C1069       C  0.34463899  0.50523017  0.57921804    -0.52500
C1070       C  0.34046593  0.97490720  0.56233623     0.11600
H1071       H  0.31139736  0.55442619  0.51880110     0.16100
H1072       H  0.31728262  0.93598888  0.53158495     0.01900
H1073       H  0.29199653  0.01811081  0.61953552     0.16400
H1074       H  0.35922019  0.51737220  0.59276332     0.16200
In1075     In  0.26088384  0.95159725  0.35940124     1.36900
C1076       C  0.23205409  0.89872487  0.38551467     0.79100
O1077       O  0.28483641  0.92621372  0.40336460    -0.59400
O1078       O  0.27906250  0.98792599  0.40378746    -0.50300
C1079       C  0.28790734  0.94430739  0.29728766     0.71800
O1080       O  0.27926555  0.91494820  0.31410644    -0.45100
C1081       C  0.23019374  0.00462006  0.33939243     0.76500
O1082       O  0.24132541  0.89560847  0.35226385    -0.57000
O1083       O  0.23700432  0.49306898  0.38521457    -0.47100
O1084       O  0.23791484  0.92803842  0.40525323    -0.53400
C1085       C  0.28853772  0.95875302  0.41971256     0.86600
O1086       O  0.28317348  0.97696506  0.31282192    -0.55300
O1087       O  0.23426071  0.97414265  0.31956062    -0.58600
C1088       C  0.17489180  0.00466358  0.91390221     0.88000
C1089       C  0.19182218  0.52409645  0.88033448    -0.52200
C1090       C  0.19201716  0.56074471  0.89676248     0.10900
C1091       C  0.17496791  0.56604384  0.93022526     0.21900
C1092       C  0.17929607  0.00248872  0.95834687    -0.53000
C1093       C  0.18056045  0.53251561  0.95940260     0.11000
C1094       C  0.15273379  0.51797188  0.89559997    -0.52500
C1095       C  0.15277101  0.55453384  0.91218969     0.11600
H1096       H  0.20310895  0.51533739  0.85694458     0.16100
H1097       H  0.17434291  0.59580317  0.94323833     0.01900
H1098       H  0.18395565  0.97536336  0.97338298     0.16400
H1099       H  0.13896213  0.01335697  0.89382183     0.16200
C1100       C  0.17343911  0.65173465  0.34813213     0.88000
C1101       C  0.18832346  0.62150653  0.36959940    -0.52200
C1102       C  0.18963829  0.58573679  0.35125463     0.10900
C1103       C  0.17532666  0.58310149  0.31398890     0.21900
C1104       C  0.18267990  0.65296310  0.30604173    -0.53000
C1105       C  0.18369448  0.61724305  0.28799604     0.11000
C1106       C  0.15108014  0.63163056  0.34474701    -0.52500
C1107       C  0.15192582  0.59547478  0.32716295     0.11600
H1108       H  0.19810715  0.62808513  0.39529143     0.16100
H1109       H  0.17579937  0.55384034  0.29965365     0.01900
H1110       H  0.18856068  0.67981373  0.29206776     0.16400
H1111       H  0.13607884  0.64458758  0.35668581     0.16200
In1112     In  0.22745464  0.57627340  0.12106364     1.36900
C1113       C  0.25353199  0.51384431  0.13122239     0.79100
O1114       O  0.25813787  0.60445431  0.09772636    -0.59400
O1115       O  0.23390017  0.64092948  0.12519240    -0.50300
C1116       C  0.20444813  0.57424090  0.05446276     0.71800
O1117       O  0.21681173  0.54671995  0.06590086    -0.45100
C1118       C  0.20455528  0.57941311  0.18837553     0.76500
O1119       O  0.23318032  0.51089281  0.12528878    -0.57000
O1120       O  0.22248656  0.59694050  0.18302687    -0.47100
O1121       O  0.26039371  0.54869402  0.13341765    -0.53400
C1122       C  0.25263094  0.63854379  0.10906940     0.86600
O1123       O  0.20381949  0.60352392  0.07699177    -0.55300
O1124       O  0.19833425  0.55948217  0.15947040    -0.58600
C1125       C  0.57236696  0.89349956  0.90158996     0.88000
C1126       C  0.55510242  0.86615482  0.88368635    -0.52200
C1127       C  0.55425761  0.82973765  0.90078261     0.10900
C1128       C  0.57107643  0.82405100  0.93432130     0.21900
C1129       C  0.56671504  0.89447579  0.94566026    -0.53000
C1130       C  0.56565500  0.85811959  0.96299409     0.11000
C1131       C  0.59409851  0.87106154  0.89879039    -0.52500
C1132       C  0.59365894  0.83474499  0.91614956     0.11600
H1133       H  0.54407676  0.87522655  0.86021710     0.16100
H1134       H  0.57118259  0.79424502  0.94758905     0.01900
H1135       H  0.56269900  0.92147600  0.96130089     0.16400
H1136       H  0.60844317  0.88292552  0.88375148     0.16200
C1137       C  0.57614510  0.73513017  0.32885803     0.88000
C1138       C  0.55791043  0.76386805  0.34342901    -0.52200
C1139       C  0.55849987  0.80015679  0.32524550     0.10900
C1140       C  0.57685192  0.80373631  0.29421632     0.21900
C1141       C  0.57295553  0.73340374  0.28414610    -0.53000
C1142       C  0.57267538  0.76917766  0.26585862     0.11000
C1143       C  0.59781016  0.75726436  0.33435475    -0.52500
C1144       C  0.59818962  0.79335808  0.31622659     0.11600
H1145       H  0.54591683  0.75603855  0.36589546     0.16100
H1146       H  0.57758076  0.83313693  0.27991343     0.01900
H1147       H  0.56922120  0.70629790  0.26873452     0.16400
H1148       H  0.61132631  0.74571151  0.35180200     0.16200
In1149     In  0.51181232  0.81136411  0.11848999     1.36900
C1150       C  0.48247751  0.86469679  0.14172027     0.79100
O1151       O  0.48708827  0.78820861  0.07645450    -0.59400
O1152       O  0.49192305  0.75666733  0.13000708    -0.50300
C1153       C  0.53846768  0.81674441  0.05654748     0.71800
O1154       O  0.52977603  0.84655307  0.07268213    -0.45100
C1155       C  0.54086354  0.80743768  0.17649240     0.76500
O1156       O  0.49292807  0.86763796  0.10952242    -0.57000
O1157       O  0.53333083  0.77694432  0.16032388    -0.47100
O1158       O  0.48742629  0.83497469  0.16228771    -0.53400
C1159       C  0.48147046  0.75972912  0.09805592     0.86600
O1160       O  0.53399382  0.78429238  0.07281196    -0.55300
O1161       O  0.53393529  0.83950467  0.16232789    -0.58600
C1162       C  0.41835063  0.78121830  0.66597550     0.88000
C1163       C  0.42447291  0.78171050  0.70972236    -0.52200
C1164       C  0.42690292  0.74512519  0.72623047     0.10900
C1165       C  0.42228914  0.71125910  0.69715381     0.21900
C1166       C  0.43630022  0.75551547  0.64661291    -0.53000
C1167       C  0.43823150  0.71867601  0.66245532     0.11000
C1168       C  0.39733235  0.75681350  0.66392479    -0.52500
C1169       C  0.39936569  0.72003056  0.68028644     0.11600
H1170       H  0.42788476  0.80865883  0.72564908     0.16100
H1171       H  0.42332075  0.68147193  0.71014194     0.01900
H1172       H  0.44650500  0.76552044  0.62219245     0.16400
H1173       H  0.38253396  0.76739856  0.64945681     0.16200
C1174       C  0.41913208  0.61456597  0.09723732     0.88000
C1175       C  0.42611982  0.61154807  0.05367860    -0.52200
C1176       C  0.42870873  0.64720347  0.03520289     0.10900
C1177       C  0.42326629  0.68265587  0.06220956     0.21900
C1178       C  0.43632611  0.64119362  0.11611744    -0.53000
C1179       C  0.43877341  0.67672077  0.09770575     0.11000
C1180       C  0.39793855  0.63913406  0.09683979    -0.52500
C1181       C  0.39990079  0.67473307  0.07838228     0.11600
H1182       H  0.42976817  0.58371210  0.03928066     0.16100
H1183       H  0.42442329  0.71193041  0.04800437     0.01900
H1184       H  0.44615504  0.63221099  0.14126137     0.16400
H1185       H  0.38273469  0.62938113  0.11065436     0.16200
In1186     In  0.48290423  0.69189416  0.87695403     1.36900
C1187       C  0.51023021  0.63756715  0.84715190     0.79100
O1188       O  0.45820825  0.66825894  0.83428397    -0.59400
O1189       O  0.46444383  0.72973548  0.83364000    -0.50300
C1190       C  0.45597683  0.68567315  0.93934087     0.71800
O1191       O  0.46683426  0.65680341  0.92586811    -0.45100
C1192       C  0.51355896  0.74307465  0.89924824     0.76500
O1193       O  0.49994841  0.63237512  0.87920997    -0.57000
O1194       O  0.50224830  0.74784179  0.86856476    -0.47100
O1195       O  0.50639210  0.67011158  0.83058102    -0.53400
C1196       C  0.45436566  0.70124917  0.81846230     0.86600
O1197       O  0.45849215  0.71734615  0.92035243    -0.55300
O1198       O  0.50881666  0.71274502  0.91895116    -0.58600
C1199       C  0.42859051  0.50894457  0.14093146     0.88000
C1200       C  0.43361092  0.51446336  0.18484079    -0.52200
C1201       C  0.43754133  0.98754882  0.20775748     0.10900
C1202       C  0.42909879  0.95389804  0.18145366     0.21900
C1203       C  0.44426795  0.99069174  0.12614038    -0.53000
C1204       C  0.44426406  0.95515608  0.14482535     0.11000
C1205       C  0.40545862  0.49102695  0.13987114    -0.52500
C1206       C  0.40640245  0.96804426  0.16686977     0.11600
H1207       H  0.43963294  0.54191937  0.19688900     0.16100
H1208       H  0.42818736  0.92456393  0.19560635     0.01900
H1209       H  0.45437663  0.99652337  0.10025459     0.16400
H1210       H  0.39206075  0.50340468  0.12266736     0.16200
C1211       C  0.41753477  0.86642948  0.58844730     0.88000
C1212       C  0.42486299  0.86314273  0.54522554    -0.52200
C1213       C  0.42739700  0.89846242  0.52634682     0.10900
C1214       C  0.42168105  0.93414834  0.55272743     0.21900
C1215       C  0.43469875  0.89354851  0.60712821    -0.53000
C1216       C  0.43695058  0.92906219  0.58864948     0.11000
C1217       C  0.39617254  0.89058531  0.58742348    -0.52500
C1218       C  0.39822663  0.92609478  0.56852686     0.11600
H1219       H  0.42882596  0.83518744  0.53129044     0.16100
H1220       H  0.42280988  0.96310580  0.53786919     0.01900
H1221       H  0.44469064  0.88501642  0.63221358     0.16400
H1222       H  0.38096245  0.88062753  0.60102717     0.16200
In1223     In  0.48489855  0.93201906  0.37005695     1.36900
C1224       C  0.51057968  0.86823946  0.35924696     0.79100
O1225       O  0.46519182  0.90917597  0.31869302    -0.59400
O1226       O  0.46828373  0.97072098  0.32395114    -0.50300
C1227       C  0.45655763  0.93265959  0.43102066     0.71800
O1228       O  0.46547177  0.90172416  0.41798785    -0.45100
C1229       C  0.51589304  0.98324601  0.39102257     0.76500
O1230       O  0.49316954  0.86762816  0.37957692    -0.57000
O1231       O  0.51106360  0.48858545  0.34818443    -0.47100
O1232       O  0.51470232  0.90131886  0.34381089    -0.53400
C1233       C  0.46093996  0.94251917  0.30419529     0.86600
O1234       O  0.46138770  0.96331134  0.41190210    -0.55300
O1235       O  0.50878860  0.95669234  0.41374620    -0.58600
C1236       C  0.57356184  0.97872082  0.82492218     0.88000
C1237       C  0.54748168  0.50723417  0.84518087    -0.52200
C1238       C  0.54610616  0.54456682  0.83024875     0.10900
C1239       C  0.56201283  0.55176490  0.79527675     0.21900
C1240       C  0.56819631  0.97823366  0.78087816    -0.53000
C1241       C  0.55647338  0.51912595  0.76535156     0.11000
C1242       C  0.58625111  0.50343455  0.82623512    -0.52500
C1243       C  0.58494980  0.54059422  0.81078761     0.11600
H1244       H  0.53729565  0.49723695  0.86963799     0.16100
H1245       H  0.56167601  0.58210799  0.78350426     0.01900
H1246       H  0.56436666  0.95142463  0.76507690     0.16400
H1247       H  0.60942674  0.99022600  0.84308547     0.16200
C1248       C  0.57274627  0.64458478  0.40106443     0.88000
C1249       C  0.55678619  0.61760478  0.37873686    -0.52200
C1250       C  0.55606570  0.57984948  0.39279302     0.10900
C1251       C  0.57149459  0.57264654  0.42797379     0.21900
C1252       C  0.56527269  0.64157941  0.44431873    -0.53000
C1253       C  0.56428737  0.60363689  0.45836769     0.11000
C1254       C  0.59509541  0.62316975  0.39960000    -0.52500
C1255       C  0.59443413  0.58542126  0.41382103     0.11600
H1256       H  0.54661453  0.62773737  0.35448386     0.16100
H1257       H  0.57156049  0.54215463  0.43980161     0.01900
H1258       H  0.56042139  0.66725387  0.46122494     0.16400
H1259       H  0.60995762  0.63659076  0.38791250     0.16200
In1260     In  0.50416261  0.57888718  0.61305386     1.36900
C1261       C  0.47358500  0.62640873  0.64300439     0.79100
O1262       O  0.47949922  0.55823089  0.56849104    -0.59400
O1263       O  0.48925875  0.51842799  0.61347476    -0.50300
C1264       C  0.53083645  0.60230289  0.55503975     0.71800
O1265       O  0.51965128  0.62576517  0.57571625    -0.45100
C1266       C  0.53128696  0.56706415  0.67329933     0.76500
O1267       O  0.48479082  0.63506132  0.61286701    -0.57000
O1268       O  0.52419454  0.53916444  0.65266522    -0.47100
O1269       O  0.47778152  0.59305268  0.65765463    -0.53400
C1270       C  0.47730098  0.52461840  0.58385405     0.86600
O1271       O  0.52889477  0.56649279  0.56457720    -0.55300
O1272       O  0.52536306  0.60080218  0.66195991    -0.58600
C1273       C  0.06870769  0.64662716  0.89647072     0.88000
C1274       C  0.05241687  0.61467708  0.88302221    -0.52200
C1275       C  0.05414656  0.58002165  0.90379333     0.10900
C1276       C  0.07181558  0.58080829  0.93567047     0.21900
C1277       C  0.06418122  0.65105610  0.94087278    -0.53000
C1278       C  0.06528375  0.61632406  0.96139683     0.11000
C1279       C  0.09146809  0.62688663  0.89344343    -0.52500
C1280       C  0.09308574  0.59261220  0.91433289     0.11600
H1281       H  0.04060758  0.61953021  0.85966295     0.16100
H1282       H  0.07363539  0.55258351  0.95201214     0.01900
H1283       H  0.05894766  0.67862722  0.95423394     0.16400
H1284       H  0.10486555  0.63839210  0.87555329     0.16200
C1285       C  0.06788806  0.98828377  0.34428566     0.88000
C1286       C  0.05293210  0.52736226  0.35580861    -0.52200
C1287       C  0.05317591  0.56532007  0.34273773     0.10900
C1288       C  0.06945175  0.57227333  0.30846613     0.21900
C1289       C  0.06345478  0.99079254  0.29960864    -0.53000
C1290       C  0.06220125  0.54294295  0.27689117     0.11000
C1291       C  0.09148807  0.51882890  0.33631237    -0.52500
C1292       C  0.09193165  0.55692971  0.32293973     0.11600
H1293       H  0.04176062  0.51749076  0.37890082     0.16100
H1294       H  0.07010705  0.60320797  0.29782596     0.01900
H1295       H  0.06031260  0.96510740  0.28167758     0.16400
H1296       H  0.10394353  0.99674363  0.36413952     0.16200
In1297     In  0.00850076  0.57360647  0.11537567     1.36900
C1298       C  0.98659875  0.64096291  0.12735859     0.79100
O1299       O  0.98120317  0.55389545  0.07565714    -0.59400
O1300       O  0.98514410  0.52420780  0.13025799    -0.50300
C1301       C  0.03498188  0.57694096  0.05263860     0.71800
O1302       O  0.03395055  0.60427441  0.07758129    -0.45100
C1303       C  0.03374400  0.54921229  0.17556347     0.76500
O1304       O  0.00288190  0.63848929  0.10436891    -0.57000
O1305       O  0.02909069  0.52780752  0.14677419    -0.47100
O1306       O  0.98195219  0.60930653  0.14511988    -0.53400
C1307       C  0.97466714  0.52688503  0.09841026     0.86600
O1308       O  0.02333773  0.54745802  0.06079991    -0.55300
O1309       O  0.02600386  0.58370322  0.17330747    -0.58600
C1310       C  0.92728523  0.86770468  0.08195669     0.88000
C1311       C  0.93311392  0.87165456  0.03773961    -0.52200
C1312       C  0.93337372  0.91008683  0.02469576     0.10900
C1313       C  0.92743918  0.94018374  0.05666912     0.21900
C1314       C  0.94398101  0.89411720  0.10275173    -0.53000
C1315       C  0.94398559  0.93187917  0.08953907     0.11000
C1316       C  0.90500490  0.88897926  0.08659018    -0.52500
C1317       C  0.90511564  0.92700432  0.07309390     0.11600
H1318       H  0.93771825  0.84670211  0.01952679     0.16100
H1319       H  0.92738232  0.97126170  0.04619220     0.01900
H1320       H  0.95517313  0.88370098  0.12541764     0.16400
H1321       H  0.89062106  0.87522426  0.09973062     0.16200
C1322       C  0.92442364  0.52792288  0.66415990     0.88000
C1323       C  0.92739733  0.52684970  0.70901724    -0.52200
C1324       C  0.92961596  0.97982231  0.71087368     0.10900
C1325       C  0.92401273  0.94830192  0.68055532     0.21900
C1326       C  0.94094057  0.99197779  0.63223436    -0.53000
C1327       C  0.94117407  0.95461354  0.64748118     0.11000
C1328       C  0.90327457  0.50487100  0.65687090    -0.52500
C1329       C  0.90179750  0.96131932  0.66332212     0.11600
H1330       H  0.92996899  0.55310041  0.72651729     0.16100
H1331       H  0.92361244  0.91802939  0.69302228     0.01900
H1332       H  0.95236449  0.00157102  0.60944840     0.16400
H1333       H  0.88951103  0.51697602  0.64042891     0.16200
In1334     In  0.98654101  0.94859936  0.86631140     1.36900
C1335       C  0.01669295  0.89514730  0.84636990     0.79100
O1336       O  0.95761894  0.94710820  0.82492979    -0.59400
O1337       O  0.98390581  0.98613125  0.81241537    -0.50300
C1338       C  0.96055249  0.91879825  0.92260800     0.71800
O1339       O  0.96582586  0.89954522  0.89234667    -0.45100
C1340       C  0.00727806  0.01221166  0.89129084     0.76500
O1341       O  0.01285006  0.90449425  0.88166068    -0.57000
O1342       O  0.99103122  0.50491237  0.85659530    -0.47100
O1343       O  0.00505895  0.91296968  0.82133962    -0.53400
C1344       C  0.96549758  0.97315321  0.80232509     0.86600
O1345       O  0.96776657  0.95350741  0.92305102    -0.55300
O1346       O  0.01685540  0.97936933  0.88701505    -0.58600
C1347       C  0.08011518  0.75090083  0.85105132     0.88000
C1348       C  0.06273769  0.77853934  0.86913187    -0.52200
C1349       C  0.06025325  0.81324271  0.84925913     0.10900
C1350       C  0.07567153  0.81749259  0.81331880     0.21900
C1351       C  0.07340617  0.74617471  0.80777032    -0.53000
C1352       C  0.07068379  0.78098335  0.78791212     0.11000
C1353       C  0.10125701  0.77537351  0.84935893    -0.52500
C1354       C  0.09898308  0.81039240  0.82956532     0.11600
H1355       H  0.05299709  0.77100148  0.89501042     0.16100
H1356       H  0.07419929  0.84629585  0.79811880     0.01900
H1357       H  0.07012934  0.71776298  0.79450363     0.16400
H1358       H  0.11643035  0.76625258  0.86358504     0.16200
C1359       C  0.07020466  0.89952571  0.41809080     0.88000
C1360       C  0.05336152  0.86982444  0.40238235    -0.52200
C1361       C  0.05499514  0.83318505  0.41943906     0.10900
C1362       C  0.07307185  0.83010284  0.45059955     0.21900
C1363       C  0.06636510  0.89963353  0.46288289    -0.53000
C1364       C  0.06727848  0.86317099  0.47995531     0.11000
C1365       C  0.09269905  0.87972070  0.41231432    -0.52500
C1366       C  0.09427818  0.84327286  0.42944453     0.11600
H1367       H  0.04114680  0.87775752  0.38053899     0.16100
H1368       H  0.07465821  0.80035968  0.46402357     0.01900
H1369       H  0.06162279  0.92588195  0.47915654     0.16400
H1370       H  0.10590058  0.89323539  0.39544486     0.16200
In1371     In  0.01230070  0.81246175  0.63410791     1.36900
C1372       C  0.98146233  0.86640465  0.64993775     0.79100
O1373       O  0.98408228  0.78107434  0.60590977    -0.59400
O1374       O  0.00092159  0.75182546  0.65227030    -0.50300
C1375       C  0.03774927  0.81886852  0.56979704     0.71800
O1376       O  0.03338164  0.84756104  0.59191289    -0.45100
C1377       C  0.04053932  0.81356206  0.69389439     0.76500
O1378       O  0.99126533  0.86500911  0.61705918    -0.57000
O1379       O  0.03500026  0.78213995  0.67710734    -0.48700
O1380       O  0.98739451  0.84032156  0.67424531    -0.53400
C1381       C  0.98562128  0.75072241  0.62740434     0.86600
O1382       O  0.02947607  0.78680480  0.58088315    -0.55300
O1383       O  0.03233545  0.84435009  0.67913607    -0.58600
C1384       C  0.92558965  0.77991777  0.15668832     0.88000
C1385       C  0.92847769  0.78191461  0.20153404    -0.52200
C1386       C  0.92742469  0.74627580  0.22015908     0.10900
C1387       C  0.92283029  0.71192097  0.19196401     0.21900
C1388       C  0.94314980  0.74976573  0.14283121    -0.53000
C1389       C  0.94148411  0.71385470  0.16142983     0.11000
C1390       C  0.90348262  0.75967825  0.15093035    -0.52500
C1391       C  0.90210156  0.72399896  0.16938337     0.11600
H1392       H  0.93237923  0.80894647  0.21694842     0.16100
H1393       H  0.92120057  0.68265710  0.20627383     0.01900
H1394       H  0.95538824  0.75637625  0.12040019     0.16400
H1395       H  0.89035494  0.77206440  0.13304148     0.16200
C1396       C  0.92398498  0.61671167  0.58982570     0.88000
C1397       C  0.92979452  0.61618495  0.54570343    -0.52200
C1398       C  0.92959551  0.65242542  0.52816568     0.10900
C1399       C  0.92273125  0.68582150  0.55639512     0.21900
C1400       C  0.94020101  0.64655331  0.60763350    -0.53000
C1401       C  0.93942204  0.68300313  0.58999216     0.11000
C1402       C  0.90125755  0.63676323  0.59206939    -0.52500
C1403       C  0.90061717  0.67301715  0.57437734     0.11600
H1404       H  0.93487453  0.58967288  0.53017252     0.16100
H1405       H  0.92177637  0.71547663  0.54265534     0.01900
H1406       H  0.95134949  0.63898922  0.63133394     0.16400
H1407       H  0.88714240  0.62363587  0.60672882     0.16200
In1408     In  0.98252557  0.70476983  0.37202851     1.36900
C1409       C  0.00939802  0.76543343  0.38087148     0.79100
O1410       O  0.96453671  0.72953342  0.42447009    -0.59400
O1411       O  0.96366429  0.66781143  0.41596172    -0.50300
C1412       C  0.95333716  0.70647979  0.31424591     0.71800
O1413       O  0.95925691  0.73697251  0.33222517    -0.45100
C1414       C  0.01338786  0.65348099  0.34990224     0.76500
O1415       O  0.99481993  0.76458077  0.35469157    -0.57000
O1416       O  0.00440906  0.65203741  0.38355356    -0.47100
O1417       O  0.01010786  0.73533689  0.40287384    -0.53400
C1418       C  0.95796987  0.69670506  0.43696355     0.86600
O1419       O  0.96133754  0.67476852  0.32739277    -0.55300
O1420       O  0.00652453  0.68086285  0.32797601    -0.58600
C1421       C  0.82122025  0.86238055  0.65466142     0.88000
C1422       C  0.81670188  0.86173930  0.69909195    -0.52200
C1423       C  0.81586652  0.89808667  0.71600135     0.10900
C1424       C  0.82043009  0.93198908  0.68651453     0.21900
C1425       C  0.80341126  0.88995912  0.63773640    -0.53000
C1426       C  0.80290854  0.92650958  0.65431715     0.11000
C1427       C  0.84282248  0.88461143  0.64975342    -0.52500
C1428       C  0.84256711  0.92108622  0.66663213     0.11600
H1429       H  0.81307591  0.83488305  0.71537557     0.16100
H1430       H  0.82071620  0.96177619  0.69950275     0.01900
H1431       H  0.79193929  0.88111558  0.61506867     0.16400
H1432       H  0.85690052  0.87252913  0.63391962     0.16200
C1433       C  0.81049404  0.52729763  0.09136336     0.88000
C1434       C  0.80660834  0.53153012  0.04683098    -0.52200
C1435       C  0.81867802  0.99136472  0.02060655     0.10900
C1436       C  0.82436785  0.95704829  0.04882713     0.21900
C1437       C  0.80568472  0.99589476  0.09921011    -0.53000
C1438       C  0.80669804  0.95980737  0.08114191     0.11000
C1439       C  0.83356768  0.50873354  0.09508634    -0.52500
C1440       C  0.84593821  0.96847360  0.06903793     0.11600
H1441       H  0.80140869  0.55897845  0.03301494     0.16100
H1442       H  0.82541378  0.92768207  0.03473710     0.01900
H1443       H  0.79402971  0.00303590  0.12250928     0.16400
H1444       H  0.84646418  0.52082789  0.11330101     0.16200
In1445     In  0.76128223  0.94626627  0.86979656     1.36900
C1446       C  0.73249157  0.00093415  0.84700363     0.79100
O1447       O  0.78476155  0.97235540  0.82562906    -0.59400
O1448       O  0.78021495  0.91036645  0.82558784    -0.50300
C1449       C  0.78852488  0.95102873  0.93060836     0.71800
O1450       O  0.78034800  0.98107910  0.91407499    -0.45100
C1451       C  0.73096698  0.89349572  0.88996763     0.76500
O1452       O  0.74862553  0.51310776  0.88422827    -0.57000
O1453       O  0.74249957  0.89023006  0.85905946    -0.47100
O1454       O  0.73804226  0.97216892  0.82580017    -0.53400
C1455       C  0.78931618  0.93983058  0.80972106     0.86600
O1456       O  0.78315451  0.91871952  0.91549087    -0.55300
O1457       O  0.73534037  0.92302667  0.91071794    -0.58600
C1458       C  0.67697152  0.89787109  0.33735649     0.88000
C1459       C  0.69486394  0.87007281  0.35408568    -0.52200
C1460       C  0.69559902  0.83361977  0.33704507     0.10900
C1461       C  0.67848400  0.82877336  0.30408653     0.21900
C1462       C  0.68172371  0.89938809  0.29296384    -0.53000
C1463       C  0.68280396  0.86337032  0.27544177     0.11000
C1464       C  0.65537807  0.87476719  0.34110787    -0.52500
C1465       C  0.65619001  0.83854429  0.32350063     0.11600
H1466       H  0.70597523  0.87848552  0.37745278     0.16100
H1467       H  0.67833796  0.79961097  0.28975290     0.01900
H1468       H  0.68470112  0.92664991  0.27690789     0.16400
H1469       H  0.64089319  0.88599588  0.35640390     0.16200
C1470       C  0.67624133  0.73846831  0.89627028     0.88000
C1471       C  0.69176617  0.76787191  0.87598906    -0.52200
C1472       C  0.69203425  0.80428667  0.89269363     0.10900
C1473       C  0.67597356  0.80836117  0.92786643     0.21900
C1474       C  0.68310429  0.73866945  0.93983216    -0.53000
C1475       C  0.68305685  0.77535500  0.95649302     0.11000
C1476       C  0.65353057  0.75903536  0.89572693    -0.52500
C1477       C  0.65342308  0.79540652  0.91263386     0.11600
H1478       H  0.70246354  0.75989339  0.85143954     0.16100
H1479       H  0.67505592  0.83813954  0.94083069     0.01900
H1480       H  0.68811484  0.71225425  0.95572898     0.16400
H1481       H  0.63897238  0.74720890  0.88206587     0.16200
In1482     In  0.73266799  0.82863642  0.11266840     1.36900
C1483       C  0.76020642  0.76787569  0.11271268     0.79100
O1484       O  0.76413681  0.85910004  0.09623787    -0.59400
O1485       O  0.73940719  0.89299876  0.12471749    -0.50300
C1486       C  0.70866836  0.82240855  0.04774965     0.71800
O1487       O  0.70740109  0.79798665  0.07568738    -0.45100
C1488       C  0.70953354  0.82685971  0.17988177     0.76500
O1489       O  0.74526953  0.77174648  0.08741227    -0.57000
O1490       O  0.70692912  0.85351167  0.15434230    -0.47100
O1491       O  0.76124082  0.79546738  0.13750503    -0.53400
C1492       C  0.75840088  0.89223085  0.10962162     0.86600
O1493       O  0.72106806  0.85117518  0.05406810    -0.55300
O1494       O  0.72299650  0.80036343  0.17016236    -0.58600
C1495       C  0.82180220  0.63027272  0.13781768     0.88000
C1496       C  0.81632589  0.62284930  0.18158461    -0.52200
C1497       C  0.81565790  0.65629800  0.20391807     0.10900
C1498       C  0.82133849  0.69384100  0.18037801     0.21900
C1499       C  0.80486397  0.66129949  0.12420362    -0.53000
C1500       C  0.80473556  0.69475507  0.14669949     0.11000
C1501       C  0.84382322  0.65196028  0.13825786    -0.52500
C1502       C  0.84352807  0.68517039  0.16065574     0.11600
H1503       H  0.81227770  0.59392315  0.19347918     0.16100
H1504       H  0.82149684  0.72147350  0.19754153     0.01900
H1505       H  0.79407370  0.65668946  0.09936365     0.16400
H1506       H  0.85825406  0.64226967  0.12177171     0.16200
C1507       C  0.82005354  0.77456750  0.58165573     0.88000
C1508       C  0.81475293  0.77347184  0.53764550    -0.52200
C1509       C  0.81351235  0.73637948  0.52242024     0.10900
C1510       C  0.81858977  0.70360071  0.55300699     0.21900
C1511       C  0.80253453  0.74842599  0.60118614    -0.53000
C1512       C  0.80170330  0.71124368  0.58638115     0.11000
C1513       C  0.84166964  0.75173751  0.58581656    -0.52500
C1514       C  0.84111336  0.71450263  0.57069149     0.11600
H1515       H  0.81101328  0.79977862  0.52050457     0.16100
H1516       H  0.81853568  0.67325761  0.54131487     0.01900
H1517       H  0.79153193  0.75862256  0.62439594     0.16400
H1518       H  0.85594099  0.76398754  0.60026840     0.16200
In1519     In  0.76260201  0.68646436  0.36441916     1.36900
C1520       C  0.73144062  0.73892892  0.34430315     0.79100
O1521       O  0.78643891  0.71745934  0.32338464    -0.59400
O1522       O  0.78073281  0.65676501  0.31495244    -0.50300
C1523       C  0.78695817  0.69257398  0.42982151     0.71800
O1524       O  0.77970632  0.72198181  0.41114686    -0.45100
C1525       C  0.73810526  0.62292240  0.37637720     0.76500
O1526       O  0.74215962  0.74136223  0.37586230    -0.57000
O1527       O  0.75496360  0.62277635  0.35459685    -0.47100
O1528       O  0.73630506  0.70934862  0.32364561    -0.53400
C1529       C  0.79028358  0.68729845  0.30297645     0.86600
O1530       O  0.78220486  0.66006191  0.41468754    -0.55300
O1531       O  0.73381135  0.65564996  0.39244216    -0.58600
C1532       C  0.66361540  0.63904883  0.84209949     0.88000
C1533       C  0.67883421  0.60738250  0.86027384    -0.52200
C1534       C  0.68050817  0.57389087  0.83803165     0.10900
C1535       C  0.66654522  0.57492705  0.80068632     0.21900
C1536       C  0.67282049  0.64567446  0.80019853    -0.53000
C1537       C  0.67477924  0.61190579  0.77845842     0.11000
C1538       C  0.64157481  0.61839790  0.83617098    -0.52500
C1539       C  0.64308451  0.58469098  0.81468988     0.11600
H1540       H  0.68774204  0.61161694  0.88751094     0.16100
H1541       H  0.66725574  0.54702031  0.78397888     0.01900
H1542       H  0.67837462  0.67418464  0.78953780     0.16400
H1543       H  0.62632809  0.62858257  0.84967008     0.16200
C1544       C  0.67654385  0.98545687  0.41280446     0.88000
C1545       C  0.69444655  0.51682467  0.39617462    -0.52200
C1546       C  0.69288163  0.55289063  0.41414523     0.10900
C1547       C  0.67469737  0.55519986  0.44562240     0.21900
C1548       C  0.68203110  0.98464847  0.45685112    -0.53000
C1549       C  0.68008482  0.52085260  0.47405995     0.11000
C1550       C  0.65492595  0.50752069  0.40626567    -0.52500
C1551       C  0.65352235  0.54343771  0.42425618     0.11600
H1552       H  0.70644790  0.50979053  0.37344661     0.16100
H1553       H  0.67333409  0.58457842  0.45953041     0.01900
H1554       H  0.68741043  0.95813290  0.47217010     0.16400
H1555       H  0.64001018  0.99155227  0.39516880     0.16200
In1556     In  0.73474717  0.57052884  0.62525865     1.36900
C1557       C  0.76272852  0.62323686  0.59672746     0.79100
O1558       O  0.76254555  0.55123618  0.66409647    -0.59400
O1559       O  0.75276555  0.51251585  0.61860676    -0.50300
C1560       C  0.70795954  0.57622251  0.68761578     0.71800
O1561       O  0.71593172  0.60621334  0.67084430    -0.45100
C1562       C  0.70619288  0.56295527  0.56695047     0.76500
O1563       O  0.75262588  0.62804499  0.62903148    -0.57000
O1564       O  0.71645218  0.53400433  0.58164587    -0.47100
O1565       O  0.75810143  0.59203809  0.57878839    -0.53400
C1566       C  0.76583093  0.51906441  0.64655227     0.86600
O1567       O  0.71352756  0.54390771  0.67229482    -0.55300
O1568       O  0.70999143  0.59556611  0.58298186    -0.58600
C1569       C  0.68871642  0.52495039  0.51463915    -0.14900
C1570       C  0.69197250  0.55976230  0.53218124    -0.30100
H1571       H  0.69483897  0.49832785  0.52892185     0.14100
H1572       H  0.68596837  0.58696408  0.51926359     0.14700
C1573       C  0.68673878  0.61127400  0.73989539    -0.14900
C1574       C  0.69376246  0.57758606  0.72300011    -0.30100
H1575       H  0.69119312  0.63928997  0.72650352     0.14100
H1576       H  0.68999786  0.54929817  0.73608318     0.14700
C1577       C  0.72467450  0.58734307  0.38224672    -0.14900
C1578       C  0.70700153  0.58759242  0.40615486    -0.30100
H1579       H  0.72965892  0.56077780  0.36688509     0.14100
H1580       H  0.70270138  0.61462965  0.42151655     0.14700
C1581       C  0.78536006  0.68264578  0.60149410    -0.14900
C1582       C  0.77897698  0.65118454  0.58091449    -0.30100
H1583       H  0.77779243  0.68851707  0.62999286     0.14100
H1584       H  0.78574971  0.64538446  0.55192902     0.14700
C1585       C  0.80470471  0.73065000  0.48208790    -0.14900
C1586       C  0.79924786  0.69551069  0.46709936    -0.30100
H1587       H  0.80101760  0.75706180  0.46505830     0.14100
H1588       H  0.80265545  0.66851080  0.48298594     0.14700
C1589       C  0.80688981  0.65570402  0.24488137    -0.14900
C1590       C  0.80378787  0.68826227  0.26680465    -0.30100
H1591       H  0.80097050  0.62762206  0.25608960     0.14100
H1592       H  0.80962079  0.71676793  0.25710804     0.14700
C1593       C  0.78995351  0.72926438  0.14199251    -0.14900
C1594       C  0.77497967  0.73337637  0.11348239    -0.30100
H1595       H  0.79137248  0.75232986  0.16391921     0.14100
H1596       H  0.77304448  0.71106373  0.09102417     0.14700
C1597       C  0.67820578  0.69815351  0.87716354    -0.14900
C1598       C  0.66100254  0.67623792  0.86612168    -0.30100
H1599       H  0.69473183  0.68712039  0.87107151     0.14100
H1600       H  0.64444158  0.68509652  0.87419355     0.14700
C1601       C  0.69064454  0.78199595  0.99742181    -0.14900
C1602       C  0.69760036  0.81734994  0.00980763    -0.30100
H1603       H  0.69234906  0.75650345  0.01671262     0.14100
H1604       H  0.69750336  0.84262832  0.99034194     0.14700
C1605       C  0.67614645  0.93870162  0.35556610    -0.14900
C1606       C  0.67743418  0.94468009  0.39460023    -0.30100
H1607       H  0.67507246  0.96418744  0.33611911     0.14100
H1608       H  0.67919388  0.91932945  0.41403318     0.14700
C1609       C  0.71162885  0.80278151  0.35023483    -0.14900
C1610       C  0.71471861  0.76816474  0.33167109    -0.30100
H1611       H  0.72164139  0.80931279  0.37574041     0.14100
H1612       H  0.70557960  0.76122333  0.30543376     0.14700
C1613       C  0.68911080  0.85960265  0.23335630    -0.14900
C1614       C  0.69888544  0.82711237  0.21896565    -0.30100
H1615       H  0.68797630  0.88581778  0.21487947     0.14100
H1616       H  0.70153120  0.80155897  0.23770548     0.14700
C1617       C  0.71469819  0.54369589  0.86484609    -0.14900
C1618       C  0.69570842  0.54038244  0.84524871    -0.30100
H1619       H  0.71054913  0.02783942  0.80358280     0.14100
H1620       H  0.69221279  0.51306499  0.83002084     0.14700
C1621       C  0.71365139  0.86551981  0.90165518    -0.14900
C1622       C  0.70824744  0.83435737  0.87959925    -0.30100
H1623       H  0.70556634  0.87085282  0.92960164     0.14100
H1624       H  0.71698830  0.82932356  0.85201720     0.14700
C1625       C  0.80758922  0.56527250  0.11411176    -0.14900
C1626       C  0.82275493  0.59387529  0.11233398    -0.30100
H1627       H  0.79362893  0.56837306  0.13407365     0.14100
H1628       H  0.83701528  0.58979694  0.09323161     0.14700
C1629       C  0.79228696  0.92552774  0.08911391    -0.14900
C1630       C  0.77257505  0.92741071  0.10718719    -0.30100
H1631       H  0.79770939  0.89756595  0.07677397     0.14100
H1632       H  0.76631966  0.95513492  0.11869946     0.14700
C1633       C  0.80933564  0.98731080  0.98050770    -0.14900
C1634       C  0.80238261  0.95287502  0.96598416    -0.30100
H1635       H  0.80583591  0.01425750  0.96418267     0.14100
H1636       H  0.80537554  0.92542308  0.98153089     0.14700
C1637       C  0.82172148  0.82172737  0.63714970    -0.14900
C1638       C  0.82090588  0.81564317  0.59816229    -0.30100
H1639       H  0.82193522  0.79647855  0.65697852     0.14100
H1640       H  0.82004572  0.84068654  0.57815049     0.14700
C1641       C  0.78629230  0.95645329  0.64218123    -0.14900
C1642       C  0.78090144  0.98799330  0.66411757    -0.30100
H1643       H  0.77776512  0.95168221  0.61459482     0.14100
H1644       H  0.79345039  0.50059890  0.68330337     0.14700
C1645       C  0.80725793  0.90238756  0.75678579    -0.14900
C1646       C  0.80305936  0.93719683  0.77389166    -0.30100
H1647       H  0.80219810  0.87559885  0.77194371     0.14100
H1648       H  0.80800593  0.96458812  0.76003560     0.14700
C1649       C  0.86016321  0.68667104  0.57218404    -0.14900
C1650       C  0.88108916  0.69946195  0.57337491    -0.30100
H1651       H  0.85689484  0.65531590  0.57062552     0.14100
H1652       H  0.88436564  0.73076575  0.57099271     0.14700
C1653       C  0.93837311  0.65797307  0.48760349    -0.14900
C1654       C  0.94544234  0.69293791  0.47404294    -0.30100
H1655       H  0.94112362  0.63177432  0.46982662     0.14100
H1656       H  0.94356654  0.71939527  0.49153004     0.14700
C1657       C  0.88308643  0.69769656  0.16609156    -0.14900
C1658       C  0.86244541  0.71165043  0.16454721    -0.30100
H1659       H  0.88614322  0.66610871  0.16675328     0.14100
H1660       H  0.85919988  0.74295795  0.16814399     0.14700
C1661       C  0.93414223  0.74234139  0.26190595    -0.14900
C1662       C  0.93975334  0.70776470  0.27857789    -0.30100
H1663       H  0.93745230  0.76944199  0.27769137     0.14100
H1664       H  0.93718594  0.68016860  0.26353029     0.14700
C1665       C  0.97095306  0.71635094  0.62358022    -0.14900
C1666       C  0.95389415  0.71706528  0.59856786    -0.30100
H1667       H  0.97462009  0.69022009  0.64090140     0.14100
H1668       H  0.95076945  0.74382861  0.58176230     0.14700
C1669       C  0.02420274  0.79930363  0.38519168    -0.14900
C1670       C  0.04023233  0.79934650  0.41218927    -0.30100
H1671       H  0.02162768  0.82442715  0.36586457     0.14100
H1672       H  0.04255678  0.77343118  0.43064400     0.14700
C1673       C  0.05898988  0.85689944  0.52075164    -0.14900
C1674       C  0.05057031  0.82236820  0.53295890    -0.30100
H1675       H  0.05729711  0.88259583  0.53956391     0.14100
H1676       H  0.05128660  0.79661247  0.51423563     0.14700
C1677       C  0.05444729  0.81470539  0.72927192    -0.14900
C1678       C  0.06101654  0.78159997  0.74776178    -0.30100
H1679       H  0.05755893  0.84340221  0.74169476     0.14100
H1680       H  0.05737097  0.75332867  0.73446157     0.14700
C1681       C  0.03353580  0.86610216  0.83478506    -0.14900
C1682       C  0.04368824  0.84300663  0.86128171    -0.30100
H1683       H  0.03711108  0.86293658  0.80360622     0.14100
H1684       H  0.03888831  0.84437729  0.89213248     0.14700
C1685       C  0.92392161  0.56930474  0.64707887    -0.14900
C1686       C  0.92463982  0.57584403  0.60797979    -0.30100
H1687       H  0.92323286  0.59424637  0.66697236     0.14100
H1688       H  0.92599883  0.55070380  0.58840194     0.14700
C1689       C  0.88253043  0.93488598  0.66357767    -0.14900
C1690       C  0.86162278  0.94817210  0.66566084    -0.30100
H1691       H  0.88588012  0.90344063  0.66455640     0.14100
H1692       H  0.85832828  0.97950019  0.66871599     0.14700
C1693       C  0.95794312  0.92476054  0.63551634    -0.14900
C1694       C  0.96438561  0.89576366  0.66010359    -0.30100
H1695       H  0.96591910  0.92792492  0.60694241     0.14100
H1696       H  0.95744985  0.89375519  0.68956258     0.14700
C1697       C  0.93748555  0.96906070  0.75057087    -0.14900
C1698       C  0.95468018  0.98747709  0.76645645    -0.30100
H1699       H  0.93109309  0.94247173  0.76430054     0.14100
H1700       H  0.96226665  0.01205193  0.75104163     0.14700
C1701       C  0.92722376  0.82612648  0.09833149    -0.14900
C1702       C  0.92647974  0.82006032  0.13757443    -0.30100
H1703       H  0.92821257  0.80122066  0.07839649     0.14100
H1704       H  0.92606381  0.84547157  0.15692716     0.14700
C1705       C  0.88589837  0.95406041  0.07401622    -0.14900
C1706       C  0.86515283  0.94133796  0.07018492    -0.30100
H1707       H  0.88917439  0.98544504  0.07482650     0.14100
H1708       H  0.86212880  0.91021242  0.06545245     0.14700
C1709       C  0.94172607  0.92441371  0.98609690    -0.14900
C1710       C  0.94802676  0.90156425  0.95585035    -0.30100
H1711       H  0.94417076  0.95603806  0.98368955     0.14100
H1712       H  0.94540974  0.86998454  0.95654107     0.14700
C1713       C  0.95555069  0.67858455  0.15461603    -0.14900
C1714       C  0.97388637  0.67786886  0.13238301    -0.30100
H1715       H  0.95050200  0.65167762  0.16948186     0.14100
H1716       H  0.97954951  0.70416066  0.11727785     0.14700
C1717       C  0.95939675  0.96103764  0.10484677    -0.14900
C1718       C  0.96883592  0.98768921  0.08113202    -0.30100
H1719       H  0.96422116  0.95873220  0.13555468     0.14100
H1720       H  0.94773533  0.50735365  0.06098520     0.14700
C1721       C  0.06830344  0.94682145  0.36093357    -0.14900
C1722       C  0.06879407  0.94029384  0.40008200    -0.30100
H1723       H  0.06817087  0.92199581  0.34087585     0.14100
H1724       H  0.06826817  0.96538962  0.41981948     0.14700
C1725       C  0.03732013  0.59498745  0.35816897    -0.14900
C1726       C  0.03046851  0.62567121  0.33629993    -0.30100
H1727       H  0.02994695  0.58987309  0.38698252     0.14100
H1728       H  0.03677430  0.62993457  0.30662967     0.14700
C1729       C  0.04640443  0.53401965  0.20953154    -0.14900
C1730       C  0.05263550  0.55746534  0.23914754    -0.30100
H1731       H  0.04983258  0.50261823  0.21059964     0.14100
H1732       H  0.04959573  0.58897268  0.23668206     0.14700
C1733       C  0.08243434  0.71258184  0.87366126    -0.14900
C1734       C  0.06660682  0.68494001  0.87368058    -0.30100
H1735       H  0.09740713  0.70739008  0.89026858     0.14100
H1736       H  0.05195125  0.68980976  0.85612165     0.14700
C1737       C  0.02166472  0.54332387  0.87791372    -0.14900
C1738       C  0.03993869  0.54484055  0.89983199    -0.30100
H1739       H  0.01673283  0.56813578  0.85967305     0.14100
H1740       H  0.04428250  0.51940478  0.91781756     0.14700
C1741       C  0.04775834  0.57919702  0.01574885    -0.14900
C1742       C  0.05679082  0.61284091  0.00239689    -0.30100
H1743       H  0.04749811  0.55320699  0.99733799     0.14100
H1744       H  0.05552012  0.63939940  0.02006097     0.14700
C1745       C  0.61362982  0.55812415  0.41512294    -0.14900
C1746       C  0.63423185  0.57054826  0.42177230    -0.30100
H1747       H  0.61033789  0.52680062  0.41326003     0.14100
H1748       H  0.63705697  0.60158744  0.42735190     0.14700
C1749       C  0.55447840  0.59138787  0.49675101    -0.14900
C1750       C  0.54419210  0.61632719  0.52148941    -0.30100
H1751       H  0.55408575  0.55998303  0.50309738     0.14100
H1752       H  0.54398370  0.64774501  0.51575457     0.14700
C1753       C  0.60338989  0.56880950  0.81090518    -0.14900
C1754       C  0.62457158  0.55710842  0.80956375    -0.30100
H1755       H  0.59926987  0.59997958  0.81180512     0.14100
H1756       H  0.62862582  0.52625549  0.80493242     0.14700
C1757       C  0.54774884  0.52553802  0.72501979    -0.14900
C1758       C  0.54436861  0.56139165  0.70922620    -0.30100
H1759       H  0.54232133  0.49976966  0.70898299     0.14100
H1760       H  0.54945670  0.58775900  0.72432582     0.14700
C1761       C  0.53490762  0.51775137  0.39686494    -0.14900
C1762       C  0.54086504  0.54997959  0.37636128    -0.30100
H1763       H  0.54087944  0.51300034  0.42649546     0.14100
H1764       H  0.53368736  0.55551922  0.34761155     0.14700
C1765       C  0.45368911  0.95773899  0.60196905    -0.14900
C1766       C  0.46035794  0.98846285  0.58000960    -0.30100
H1767       H  0.46141796  0.95239385  0.63029641     0.14100
H1768       H  0.45338625  0.99397960  0.55118863     0.14700
C1769       C  0.43780257  0.89998343  0.48654051    -0.14900
C1770       C  0.44254622  0.93336703  0.46683140    -0.30100
H1771       H  0.44311640  0.87203383  0.47398909     0.14100
H1772       H  0.43736784  0.96183087  0.47799647     0.14700
C1773       C  0.44908669  0.94733155  0.26646422    -0.14900
C1774       C  0.44652738  0.98256537  0.24841557    -0.30100
H1775       H  0.44367717  0.92052124  0.25251291     0.14100
H1776       H  0.44157427  0.50331989  0.26524359     0.14700
C1777       C  0.53054719  0.57410771  0.84734888    -0.14900
C1778       C  0.52562853  0.60855833  0.82971304    -0.30100
H1779       H  0.52258121  0.56684998  0.87519310     0.14100
H1780       H  0.53280409  0.61613474  0.80143205     0.14700
C1781       C  0.43123189  0.54638829  0.11699363    -0.14900
C1782       C  0.41636737  0.57587588  0.11890339    -0.30100
H1783       H  0.44555788  0.54941306  0.09791593     0.14100
H1784       H  0.40180458  0.57216560  0.13730444     0.14700
C1785       C  0.43919837  0.64968773  0.99539814    -0.14900
C1786       C  0.44214718  0.68357618  0.97536504    -0.30100
H1787       H  0.44590920  0.62257728  0.98312461     0.14100
H1788       H  0.43521537  0.71098211  0.98618027     0.14700
C1789       C  0.41625071  0.82174055  0.64760584    -0.14900
C1790       C  0.41538369  0.82660928  0.60826142    -0.30100
H1791       H  0.41710922  0.84739342  0.66653209     0.14100
H1792       H  0.41519802  0.80062349  0.58968292     0.14700
C1793       C  0.45433553  0.68994559  0.64620995    -0.14900
C1794       C  0.45704553  0.65316030  0.66018824    -0.30100
H1795       H  0.46446705  0.69969850  0.62158066     0.14100
H1796       H  0.44753325  0.64227336  0.68490060     0.14700
C1797       C  0.43685429  0.74038902  0.76590406    -0.14900
C1798       C  0.44016599  0.70535477  0.78359685    -0.30100
H1799       H  0.44318415  0.76677399  0.77979706     0.14100
H1800       H  0.43370734  0.67850019  0.77117039     0.14700
C1801       C  0.46388758  0.73281678  0.08616856    -0.14900
C1802       C  0.45602771  0.70465569  0.11015395    -0.30100
H1803       H  0.45750463  0.73648825  0.05664308     0.14100
H1804       H  0.46318630  0.70068056  0.13916823     0.14700
C1805       C  0.46583975  0.89359561  0.15487548    -0.14900
C1806       C  0.45921668  0.92319271  0.13140224    -0.30100
H1807       H  0.45954358  0.89083991  0.18470937     0.14100
H1808       H  0.46628248  0.92578274  0.10200679     0.14700
C1809       C  0.57606748  0.69411707  0.34683045    -0.14900
C1810       C  0.57344908  0.68661527  0.38548388    -0.30100
H1811       H  0.57773161  0.66921102  0.32697149     0.14100
H1812       H  0.57107884  0.71097201  0.40576603     0.14700
C1813       C  0.61662890  0.82171226  0.31902552    -0.14900
C1814       C  0.63771389  0.81020582  0.32292423    -0.30100
H1815       H  0.61278904  0.85282447  0.31542545     0.14100
H1816       H  0.64184856  0.77903709  0.32246341     0.14700
C1817       C  0.52485678  0.83294266  0.35434750    -0.14900
C1818       C  0.54337618  0.83419216  0.33249468    -0.30100
H1819       H  0.51988995  0.80578680  0.36872581     0.14100
H1820       H  0.54762560  0.86172347  0.31795962     0.14700
C1821       C  0.55550494  0.80650483  0.21086750    -0.14900
C1822       C  0.56363699  0.77264432  0.22542271    -0.30100
H1823       H  0.55771181  0.83403414  0.22625820     0.14100
H1824       H  0.56090620  0.74554645  0.20931315     0.14700
C1825       C  0.57340027  0.93364959  0.88284895    -0.14900
C1826       C  0.57450437  0.93840206  0.84354560    -0.30100
H1827       H  0.57255094  0.95934798  0.90175808     0.14100
H1828       H  0.57470565  0.91266594  0.82463747     0.14700
C1829       C  0.63378423  0.82142359  0.91495082    -0.14900
C1830       C  0.61300162  0.80780985  0.91655413    -0.30100
H1831       H  0.63675926  0.85283905  0.91660790     0.14100
H1832       H  0.61000836  0.77639444  0.91889717     0.14700
C1833       C  0.53106817  0.77029824  0.91142983    -0.14900
C1834       C  0.53737403  0.80078908  0.88872536    -0.30100
H1835       H  0.53863278  0.76506065  0.93981623     0.14100
H1836       H  0.52907387  0.80597525  0.86090259     0.14700
C1837       C  0.55663806  0.85385593  0.00352029    -0.14900
C1838       C  0.55188080  0.81904961  0.02032664    -0.30100
H1839       H  0.55192434  0.88076512  0.01878715     0.14100
H1840       H  0.55638481  0.79154296  0.00629024     0.14700
C1841       C  0.11161889  0.58273543  0.32368642    -0.14900
C1842       C  0.13254046  0.56910755  0.32349258    -0.30100
H1843       H  0.10853642  0.61427150  0.32341885     0.14100
H1844       H  0.13572751  0.53777248  0.32025834     0.14700
C1845       C  0.19494432  0.61283282  0.24952455    -0.14900
C1846       C  0.19190901  0.58226066  0.22537761    -0.30100
H1847       H  0.20611810  0.63615660  0.24057762     0.14100
H1848       H  0.17968761  0.55999224  0.23205144     0.14700
C1849       C  0.11280897  0.56698069  0.91461114    -0.14900
C1850       C  0.13336916  0.58110928  0.91238811    -0.30100
H1851       H  0.11021925  0.53558986  0.91867016     0.14100
H1852       H  0.13612577  0.61268033  0.91245676     0.14700
C1853       C  0.18953484  0.53744760  0.99947044    -0.14900
C1854       C  0.19208150  0.57225493  0.01742530    -0.30100
H1855       H  0.19555480  0.51091047  0.01407572     0.14100
H1856       H  0.18563849  0.59936491  0.00493140     0.14700
C1857       C  0.21432053  0.52865442  0.33870572    -0.14900
C1858       C  0.20532032  0.55447836  0.36423110    -0.30100
H1859       H  0.21020940  0.53021044  0.30767337     0.14100
H1860       H  0.21034199  0.55393799  0.39488058     0.14700
C1861       C  0.38004797  0.95544823  0.56489107    -0.14900
C1862       C  0.35864248  0.94533493  0.56378022    -0.30100
H1863       H  0.38459730  0.98620195  0.56190647     0.14100
H1864       H  0.35416658  0.91445184  0.56296582     0.14700
C1865       C  0.30174365  0.96165850  0.45605354    -0.14900
C1866       C  0.30394010  0.99605254  0.47507756    -0.30100
H1867       H  0.30818011  0.93452649  0.46855925     0.14100
H1868       H  0.29754407  0.02272361  0.46129783     0.14700
C1869       C  0.36580323  0.95734048  0.16676333    -0.14900
C1870       C  0.38654441  0.94291457  0.16877941    -0.30100
H1871       H  0.36276425  0.98887250  0.16827398     0.14100
H1872       H  0.38925726  0.91131786  0.17112626     0.14700
C1873       C  0.29117901  0.96883891  0.12993143    -0.14900
C1874       C  0.28334103  0.99556541  0.15571086    -0.30100
H1875       H  0.28436159  0.96783485  0.10046980     0.14100
H1876       H  0.28923518  0.99562161  0.18575004     0.14700
C1877       C  0.30600613  0.90751334  0.24277643    -0.14900
C1878       C  0.30177618  0.94171826  0.26142737    -0.30100
H1879       H  0.30012485  0.88023458  0.25587188     0.14100
H1880       H  0.30745064  0.96939982  0.24935688     0.14700
C1881       C  0.28068795  0.90873005  0.57599621    -0.14900
C1882       C  0.28539037  0.94248752  0.59457190    -0.30100
H1883       H  0.28807617  0.90199999  0.54765587     0.14100
H1884       H  0.27719714  0.94892014  0.62241532     0.14700
C1885       C  0.17786504  0.70407616  0.40079114    -0.14900
C1886       C  0.17146329  0.69297593  0.36471926    -0.30100
H1887       H  0.18398659  0.68252295  0.42175410     0.14100
H1888       H  0.16424867  0.71517831  0.34542565     0.14700
C1889       C  0.11400562  0.81732678  0.42702619    -0.14900
C1890       C  0.13439033  0.83116381  0.42044690    -0.30100
H1891       H  0.11169642  0.78617764  0.43304322     0.14100
H1892       H  0.13704693  0.86267221  0.41810049     0.14700
C1893       C  0.20838610  0.83988837  0.38066199    -0.14900
C1894       C  0.21559067  0.87100163  0.40100547    -0.30100
H1895       H  0.21523881  0.83371359  0.35166807     0.14100
H1896       H  0.20970760  0.87625213  0.43076622     0.14700
C1897       C  0.19723007  0.78637132  0.53498549    -0.14900
C1898       C  0.19265414  0.80896838  0.50350115    -0.30100
H1899       H  0.19322013  0.75528834  0.53517963     0.14100
H1900       H  0.19657994  0.84013880  0.50417560     0.14700
C1901       C  0.17617970  0.95935589  0.85534508    -0.14900
C1902       C  0.17561343  0.96447547  0.89464795    -0.30100
H1903       H  0.17657098  0.98503822  0.83611174     0.14100
H1904       H  0.17594286  0.93862080  0.91367575     0.14700
C1905       C  0.11668689  0.84033136  0.82623967    -0.14900
C1906       C  0.13815958  0.83034599  0.82483165    -0.30100
H1907       H  0.11180721  0.87107533  0.82371890     0.14100
H1908       H  0.14280913  0.79940101  0.82365762     0.14700
C1909       C  0.19387091  0.87674760  0.73605076    -0.14900
C1910       C  0.20079988  0.84150331  0.72272914    -0.30100
H1911       H  0.19677273  0.90283009  0.71808529     0.14100
H1912       H  0.19866756  0.81521359  0.74039880     0.14700
C1913       C  0.21678193  0.79200677  0.83246261    -0.14900
C1914       C  0.21111314  0.82364084  0.85404951    -0.30100
H1915       H  0.21018794  0.78805427  0.80325858     0.14100
H1916       H  0.21866237  0.82785145  0.88261843     0.14700
C1917       C  0.21301013  0.62248803  0.90589658    -0.14900
C1918       C  0.20820959  0.59080502  0.88408922    -0.30100
H1919       H  0.20503221  0.62751854  0.93407656     0.14100
H1920       H  0.21704926  0.58586526  0.85657996     0.14700
C1921       C  0.31383987  0.80757377  0.11829197    -0.14900
C1922       C  0.32874423  0.83644960  0.11718440    -0.30100
H1923       H  0.29947279  0.81063322  0.13732903     0.14100
H1924       H  0.34333475  0.83265830  0.09880118     0.14700
C1925       C  0.36039407  0.69111400  0.07166136    -0.14900
C1926       C  0.38130154  0.70337727  0.07577740    -0.30100
H1927       H  0.35727964  0.66005007  0.06673166     0.14100
H1928       H  0.38490123  0.73462724  0.07687004     0.14700
C1929       C  0.28727295  0.67034419  0.08915618    -0.14900
C1930       C  0.26695489  0.67304491  0.10483620    -0.30100
H1931       H  0.29309694  0.64236241  0.07750908     0.14100
H1932       H  0.26052779  0.70116284  0.11495717     0.14700
C1933       C  0.30373540  0.74335067  0.98698953    -0.14900
C1934       C  0.30097763  0.71009795  0.96625598    -0.30100
H1935       H  0.29714779  0.77086743  0.97534475     0.14100
H1936       H  0.30730023  0.68214012  0.97678765     0.14700
C1937       C  0.32376928  0.57268374  0.63607173    -0.14900
C1938       C  0.32307702  0.56756176  0.59670802    -0.30100
H1939       H  0.32431580  0.54687794  0.65513221     0.14100
H1940       H  0.32197924  0.59313992  0.57744186     0.14700
C1941       C  0.36052578  0.69965232  0.67748975    -0.14900
C1942       C  0.38190064  0.68978110  0.67924084    -0.30100
H1943       H  0.35565662  0.73042955  0.67950445     0.14100
H1944       H  0.38677994  0.65897532  0.68090394     0.14700
C1945       C  0.28974565  0.70937351  0.63773168    -0.14900
C1946       C  0.28603748  0.74336194  0.65696001    -0.30100
H1947       H  0.28084913  0.70366078  0.61071403     0.14100
H1948       H  0.29416912  0.74989216  0.68434651     0.14700
C1949       C  0.30067768  0.68616367  0.77497602    -0.14900
C1950       C  0.30131689  0.65181420  0.75527798    -0.30100
H1951       H  0.30981800  0.71148435  0.76464629     0.14100
H1952       H  0.29254738  0.62661306  0.76726800     0.14700
loop_ 
_geom_bond_atom_site_label_1 
_geom_bond_atom_site_label_2 
_geom_bond_distance 
_geom_bond_site_symmetry_2 
_ccdc_geom_bond_type 
C1            C2   1.538       .  S
C1            C7   1.533       .  S
C1            C5   1.544       .  S
C1          C961   1.514       .  S
C2            H9   1.087       .  S
C2            C3   1.366       .  D
C3            C4   1.539       .  S
C3          C974   1.485       .  S
C4            C8   1.532       .  S
C4            C6   1.530       .  S
C4           H10   1.108       .  S
C5           H11   1.084       .  S
C5            C6   1.370       .  D
C6          C969   1.481       .  S
C7           H12   1.086       .  S
C7            C8   1.366       .  D
C8          C965   1.477       .  S
C13          C14   1.545       .  S
C13          C19   1.537       .  S
C13          C17   1.546       .  S
C13         C945   1.520       .  S
C14          H21   1.085       .  S
C14          C15   1.373       .  D
C15          C16   1.541       .  S
C15         C957   1.492   1_554  S
C16          C20   1.526       .  S
C16          C18   1.531       .  S
C16          H22   1.107       .  S
C17          H23   1.085       .  S
C17          C18   1.372       .  D
C18         C953   1.485       .  S
C19          H24   1.085       .  S
C19          C20   1.360       .  D
C20         C949   1.478       .  S
In25         O27   2.257       .  S
In25         O28   2.239       .  S
In25         O36   2.243       .  S
In25         O30   2.272       .  S
In25         O32   2.251       .  S
In25         O33   2.242       .  S
In25         O34   2.245       .  S
In25         O37   2.258       .  S
C26          O32   1.262       .  A
C26          O34   1.259       .  A
C26         C937   1.474       .  S
O27          C35   1.260       .  A
O28          C35   1.257       .  A
C29          O36   1.257       .  A
C29          O30   1.259       .  A
C29         C958   1.474       .  S
C31          O33   1.255       .  A
C31          O37   1.262       .  A
C31         C941   1.473       .  S
C35         C973   1.472       .  S
C38          C39   1.540       .  S
C38          C44   1.529       .  S
C38          C42   1.531       .  S
C38         C925   1.507       .  S
C39          H46   1.086       .  S
C39          C40   1.364       .  D
C40          C41   1.543       .  S
C40         C938   1.487       .  S
C41          C45   1.543       .  S
C41          C43   1.546       .  S
C41          H47   1.105       .  S
C42          H48   1.087       .  S
C42          C43   1.364       .  D
C43         C933   1.482       .  S
C44          H49   1.086       .  S
C44          C45   1.366       .  D
C45         C930   1.484       .  S
C50          C51   1.537       .  S
C50          C56   1.532       .  S
C50          C54   1.530       .  S
C50         C909   1.508       .  S
C51          H58   1.086       .  S
C51          C52   1.361       .  D
C52          C53   1.541       .  S
C52         C917   1.481       .  S
C53          C57   1.543       .  S
C53          C55   1.544       .  S
C53          H59   1.107       .  S
C54          H60   1.087       .  S
C54          C55   1.364       .  D
C55         C922   1.481       .  S
C56          H61   1.085       .  S
C56          C57   1.370       .  D
C57         C914   1.485       .  S
In62         O64   2.231       .  S
In62         O65   2.247       .  S
In62         O73   2.247       .  S
In62         O67   2.258       .  S
In62         O69   2.256       .  S
In62         O70   2.236       .  S
In62         O71   2.243       .  S
In62         O74   2.251       .  S
C63          O69   1.263       .  A
C63          O71   1.259       .  A
C63         C905   1.475       .  S
O64          C72   1.263       .  A
O65          C72   1.261       .  A
C66          O73   1.255       .  A
C66          O67   1.260       .  A
C66         C934   1.472       .  S
C68          O70   1.259       .  A
C68          O74   1.258       .  A
C68         C921   1.470       .  S
C72         C970   1.473       .  S
C75          C76   1.543       .  S
C75          C81   1.548       .  S
C75          C79   1.536       .  S
C75         C946   1.530       .  S
C76          H83   1.085       .  S
C76          C77   1.376       .  D
C77          C78   1.538       .  S
C77         C901   1.492       .  S
C78          C82   1.536       .  S
C78          C80   1.530       .  S
C78          H84   1.112       .  S
C79          H85   1.086       .  S
C79          C80   1.366       .  D
C80         C897   1.477       .  S
C81          H86   1.083       .  S
C81          C82   1.365       .  D
C82         C893   1.488       .  S
C87          C88   1.534       .  S
C87          C93   1.531       .  S
C87         C962   1.515       .  S
C87        C1067   1.538       .  S
C88          H95   1.087       .  S
C88        C1065   1.367   1_545  D
C89          C90   1.546       .  S
C89        C1064   1.369       .  D
C89         C890   1.492       .  S
C90          C94   1.540       .  S
C90          C92   1.542       .  S
C90          H96   1.104       .  S
C91        C1063   1.539       .  S
C91          H97   1.086       .  S
C91          C92   1.364       .  D
C92         C906   1.488       .  S
C93          H98   1.085       .  S
C93        C1070   1.367   1_545  D
C94        C1069   1.366       .  D
C94         C886   1.483       .  S
In99        O101   2.244       .  S
In99        O102   2.261       .  S
In99        O110   2.257       .  S
In99        O104   2.251       .  S
In99        O106   2.247       .  S
In99        O108   2.249       .  S
In99        O111   2.250       .  S
In99       O1083   2.266       .  S
C100        O106   1.260       .  A
C100        O108   1.258       .  A
C100        C918   1.472       .  S
O101        C109   1.259       .  A
O102        C109   1.262       .  A
C103        O110   1.264       .  A
C103        O104   1.260       .  A
C103        C902   1.480       .  S
C105        O111   1.257       .  A
C105       O1083   1.259       .  A
C105       C1857   1.476       .  S
O107      In1075   2.264   1_545  S
O107       C1081   1.262       .  A
C109        C889   1.475       .  S
C112        C116   1.531       .  S
C112        C926   1.505       .  S
C112       C1089   1.539       .  S
C112       C1094   1.525       .  S
C113       C1088   1.544       .  S
C113        H120   1.083       .  S
C113        C114   1.374       .  D
C114        C115   1.533       .  S
C114        C942   1.485       .  S
C115        C119   1.541       .  S
C115        C117   1.544       .  S
C115        H121   1.110       .  S
C116        H122   1.087       .  S
C116       C1093   1.364       .  D
C117       C1092   1.364       .  D
C117        C877   1.488   1_556  S
C118       C1088   1.530       .  S
C118       H1099   1.086       .  S
C118        C119   1.367       .  D
C119        C874   1.486       .  S
H123       C1094   1.086       .  S
C124        C125   1.541       .  S
C124        C130   1.522       .  S
C124        C128   1.532       .  S
C124        C910   1.506       .  S
C125        H132   1.086       .  S
C125        C126   1.367       .  D
C126        C127   1.546       .  S
C126        C882   1.490       .  S
C127        C131   1.545       .  S
C127        C129   1.546       .  S
C127        H133   1.106       .  S
C128        H134   1.087       .  S
C128        C129   1.364       .  D
C129        C869   1.485       .  S
C130        H135   1.086       .  S
C130        C131   1.365       .  D
C131        C866   1.484       .  S
In136       O138   2.236       .  S
In136       O139   2.270       .  S
In136       O147   2.253       .  S
In136       O141   2.267       .  S
In136       O143   2.275       .  S
In136       O144   2.248       .  S
In136       O145   2.240       .  S
In136       O148   2.250       .  S
C137        O143   1.263       .  A
C137        O145   1.259       .  A
C137       C1874   1.479   1_545  S
O138        C146   1.262       .  A
O139        C146   1.261       .  A
C140        O147   1.257       .  A
C140        O141   1.261       .  A
C140        C878   1.478       .  S
C142        O144   1.261       .  A
C142        O148   1.258       .  A
C142        C870   1.474       .  S
C146        C954   1.482       .  S
C149        C150   1.538       .  S
C149        C155   1.530       .  S
C149        C153   1.534       .  S
C149        C849   1.508       .  S
C150        H157   1.087       .  S
C150        C151   1.363       .  D
C151        C152   1.543       .  S
C151        C858   1.486       .  S
C152        C156   1.541       .  S
C152        C154   1.540       .  S
C152        H158   1.107       .  S
C153        H159   1.087       .  S
C153        C154   1.364       .  D
C154        C861   1.476       .  S
C155        H160   1.086       .  S
C155        C156   1.366       .  D
C156        C854   1.480       .  S
C161        C162   1.545       .  S
C161        C167   1.531       .  S
C161        C165   1.536       .  S
C161        C833   1.512       .  S
C162        H169   1.085       .  S
C162        C163   1.371       .  D
C163        C164   1.533       .  S
C163        C842   1.488       .  S
C164        C168   1.542       .  S
C164        C166   1.534       .  S
C164        H170   1.111       .  S
C165        H171   1.085       .  S
C165        C166   1.371       .  D
C166        C846   1.478       .  S
C167        H172   1.087       .  S
C167        C168   1.358       .  D
C168        C837   1.478       .  S
In173       O175   2.230       .  S
In173       O176   2.244       .  S
In173       O184   2.242       .  S
In173       O178   2.242       .  S
In173       O180   2.259       .  S
In173       O181   2.241       .  S
In173       O182   2.261       .  S
In173       O185   2.247       .  S
C174        O180   1.257       .  A
C174        O182   1.259       .  A
C174        C829   1.477       .  S
O175        C183   1.264       .  A
O176        C183   1.260       .  A
C177        O184   1.258       .  A
C177        O178   1.259       .  A
C177        C862   1.466       .  S
C179        O181   1.257       .  A
C179        O185   1.262       .  A
C179        C845   1.468       .  S
C183        C825   1.469       .  S
C186        C187   1.535       .  S
C186        C192   1.528       .  S
C186        C190   1.541       .  S
C186        C813   1.510       .  S
C187        H194   1.086       .  S
C187        C188   1.367       .  D
C188        C189   1.545       .  S
C188        C821   1.488       .  S
C189        C193   1.536       .  S
C189        C191   1.541       .  S
C189        H195   1.104       .  S
C190        H196   1.086       .  S
C190        C191   1.365       .  D
C191        C817   1.485       .  S
C192        H197   1.086       .  S
C192        C193   1.365       .  D
C193        C966   1.480       .  S
C198        C199   1.541       .  S
C198        C204   1.531       .  S
C198        C202   1.537       .  S
C198        C806   1.511       .  S
C199        H206   1.084       .  S
C199        C200   1.371       .  D
C200        C201   1.547       .  S
C200        C809   1.494   1_554  S
C201        C205   1.533       .  S
C201        C203   1.532       .  S
C201        H207   1.105       .  S
C202        H208   1.085       .  S
C202        C203   1.368       .  D
C203        C826   1.479       .  S
C204        H209   1.086       .  S
C204        C205   1.363       .  D
C205        C950   1.480       .  S
In210       O212   2.253       .  S
In210       O213   2.244       .  S
In210       O221   2.237       .  S
In210       O215   2.271       .  S
In210       O217   2.248       .  S
In210       O218   2.247       .  S
In210       O219   2.241       .  S
In210       O222   2.253       .  S
C211        O217   1.263       .  A
C211        O219   1.258       .  A
C211        C802   1.472       .  S
O212        C220   1.261       .  A
O213        C220   1.261       .  A
C214        O221   1.258       .  A
C214        O215   1.261       .  A
C214        C810   1.475       .  S
C216        O218   1.260       .  A
C216        O222   1.259       .  A
C216        C857   1.475       .  S
C220        C822   1.476       .  S
C223        C224   1.541       .  S
C223        C229   1.539       .  S
C223        C805   1.520       .  S
C223       C1203   1.530   1_545  S
C224        H231   1.087       .  S
C224       C1201   1.373   1_545  D
C225        C226   1.543       .  S
C225       C1200   1.366       .  D
C225        C798   1.484       .  S
C226        C230   1.541       .  S
C226        C228   1.534       .  S
C226        H232   1.111       .  S
C227       C1199   1.542       .  S
C227        H233   1.085       .  S
C227        C228   1.370       .  D
C228        C830   1.486       .  S
C229        H234   1.081       .  S
C229       C1206   1.363   1_545  D
C230       C1205   1.365       .  D
C230        C894   1.487       .  S
C235        C236   1.529       .  S
C235        C241   1.529       .  S
C235        C239   1.538       .  S
C235        C814   1.510       .  S
C236        H243   1.087       .  S
C236        C237   1.362       .  D
C237        C238   1.547       .  S
C237        C793   1.483       .  S
C238        C242   1.543       .  S
C238        C240   1.545       .  S
C238        H244   1.104       .  S
C239        H245   1.086       .  S
C239        C240   1.366       .  D
C240        C789   1.488       .  S
C241        H246   1.086       .  S
C241        C242   1.368       .  D
C242        C885   1.485       .  S
In247       O249   2.252       .  S
In247       O250   2.276       .  S
In247       O258   2.248       .  S
In247       O252   2.246       .  S
In247       O254   2.255       .  S
In247       O256   2.253       .  S
In247       O259   2.229       .  S
In247      O1231   2.269       .  S
C248        O254   1.262       .  A
C248        O256   1.264       .  A
C248        C841   1.481       .  S
O249        C257   1.255       .  A
O250        C257   1.257       .  A
C251        O258   1.257       .  A
C251        O252   1.261       .  A
C251        C794   1.472       .  S
C253        O259   1.258       .  A
C253       O1231   1.264       .  A
C253       C1761   1.473       .  S
O255      In1223   2.260       .  S
O255       C1229   1.261       .  A
C257        C797   1.474       .  S
C260        C264   1.534       .  S
C260        C850   1.508       .  S
C260       C1237   1.539       .  S
C260       C1242   1.528       .  S
C261       C1236   1.536   1_545  S
C261        H268   1.087   1_545  S
C261        C262   1.359       .  D
C262        C263   1.542       .  S
C262        C801   1.482       .  S
C263        C267   1.544       .  S
C263        C265   1.547       .  S
C263        H269   1.104       .  S
C264        H270   1.087       .  S
C264       C1241   1.366       .  D
C265       C1240   1.367   1_545  D
C265        C781   1.486       .  S
C266       C1236   1.529   1_545  S
C266       H1247   1.085   1_545  S
C266        C267   1.366       .  D
C267        C777   1.485       .  S
H271       C1242   1.086       .  S
C272        C273   1.544       .  S
C272        C278   1.531       .  S
C272        C276   1.530       .  S
C272        C834   1.513       .  S
C273        H280   1.084       .  S
C273        C274   1.368       .  D
C274        C275   1.545       .  S
C274        C786   1.490       .  S
C275        C279   1.540       .  S
C275        C277   1.545       .  S
C275        H281   1.105       .  S
C276        H282   1.087       .  S
C276        C277   1.362       .  D
C277        C773   1.482       .  S
C278        H283   1.086       .  S
C278        C279   1.367       .  D
C279        C769   1.486       .  S
In284       O286   2.239       .  S
In284       O287   2.256       .  S
In284       O295   2.247       .  S
In284       O289   2.236       .  S
In284       O291   2.253       .  S
In284       O292   2.246       .  S
In284       O293   2.232       .  S
In284       O296   2.247       .  S
C285        O291   1.263       .  A
C285        O293   1.259       .  A
C285        C818   1.470       .  S
O286        C294   1.258       .  A
O287        C294   1.263       .  A
C288        O295   1.259       .  A
C288        O289   1.262       .  A
C288        C774   1.472       .  S
C290        O292   1.262       .  A
C290        O296   1.259       .  A
C290        C782   1.473       .  S
C294       C1766   1.474   1_545  S
C297        C298   1.538       .  S
C297        C303   1.545       .  S
C297        C301   1.538       .  S
C297        C758   1.521       .  S
C298        H305   1.086       .  S
C298        C299   1.365       .  D
C299        C300   1.528       .  S
C299        C762   1.477       .  S
C300        C304   1.531       .  S
C300        C302   1.547       .  S
C300        H306   1.107       .  S
C301        H307   1.086       .  S
C301        C302   1.370       .  D
C302        C766   1.489   1_556  S
C303        H308   1.086       .  S
C303        C304   1.368       .  D
C304        C873   1.482       .  S
C309        C313   1.544       .  S
C309        C745   1.521       .  S
C309       C1286   1.539       .  S
C309       C1291   1.535       .  S
C310       C1285   1.542   1_545  S
C310        H317   1.087       .  S
C310        C311   1.363       .  D
C311        C312   1.537       .  S
C311        C749   1.484       .  S
C312        C316   1.532       .  S
C312        C314   1.529       .  S
C312        H318   1.110       .  S
C313        H319   1.084       .  S
C313       C1290   1.375       .  D
C314       C1289   1.374   1_545  D
C314        C754   1.482       .  S
C315       C1285   1.535   1_545  S
C315       H1296   1.086   1_545  S
C315        C316   1.364       .  D
C316        C865   1.477       .  S
H320       C1291   1.085       .  S
In321       O323   2.242   1_455  S
In321       O324   2.225   1_455  S
In321       O332   2.235       .  S
In321       O326   2.262       .  S
In321       O328   2.239   1_455  S
In321       O329   2.237       .  S
In321       O330   2.258   1_455  S
In321       O333   2.242       .  S
C322        O328   1.259       .  A
C322        O330   1.259       .  A
C322        C738   1.473       .  S
O323        C331   1.257       .  A
O324        C331   1.259       .  A
C325        O332   1.258       .  A
C325        O326   1.262       .  A
C325        C765   1.472       .  S
C327        O329   1.259       .  A
C327        O333   1.266       .  A
C327        C753   1.474       .  S
C331       C1718   1.462   1_545  S
C334        C335   1.543       .  S
C334        C340   1.524       .  S
C334        C338   1.538       .  S
C334        C725   1.517       .  S
C335        H342   1.086       .  S
C335        C336   1.369       .  D
C336        C337   1.545       .  S
C336        C733   1.490   1_554  S
C337        C341   1.540       .  S
C337        C339   1.544       .  S
C337        H343   1.106       .  S
C338        H344   1.087       .  S
C338        C339   1.369       .  D
C339        C741   1.491       .  S
C340        H345   1.086       .  S
C340        C341   1.363       .  D
C341        C729   1.480       .  S
C346        C347   1.537       .  S
C346        C352   1.532   1_545  S
C346        C709   1.510       .  S
C346       C1326   1.543   1_545  S
C347        H354   1.086       .  S
C347       C1324   1.367   1_545  D
C348        C349   1.544       .  S
C348       C1323   1.366       .  D
C348        C721   1.485       .  S
C349        C353   1.541       .  S
C349        C351   1.544       .  S
C349        H355   1.105       .  S
C350       C1322   1.540       .  S
C350        H356   1.087       .  S
C350        C351   1.367       .  D
C351        C717   1.490       .  S
C352        H357   1.086   1_565  S
C352       C1329   1.366       .  D
C353       C1328   1.367       .  D
C353        C713   1.487       .  S
In358       O360   2.254       .  S
In358       O361   2.248       .  S
In358       O369   2.250       .  S
In358       O363   2.274       .  S
In358       O365   2.263       .  S
In358       O367   2.253   1_655  S
In358       O370   2.250   1_655  S
In358      O1342   2.256       .  S
C359        O365   1.260   1_455  A
C359        O367   1.260       .  A
C359        C705   1.480       .  S
O360        C368   1.260       .  A
O361        C368   1.258       .  A
C362        O369   1.258       .  A
C362        O363   1.260       .  A
C362        C734   1.477       .  S
C364        O370   1.262       .  A
C364       O1342   1.259   1_455  A
C364       C1737   1.477       .  S
O366      In1334   2.244   1_545  S
O366       C1340   1.260   1_655  A
C368        C722   1.473       .  S
C371        C372   1.540       .  S
C371        C377   1.532       .  S
C371        C375   1.546       .  S
C371        C757   1.521       .  S
C372        H379   1.084       .  S
C372        C373   1.371       .  D
C373        C374   1.537       .  S
C373        C706   1.489       .  S
C374        C378   1.538       .  S
C374        C376   1.548       .  S
C374        H380   1.106       .  S
C375        H381   1.086       .  S
C375        C376   1.373       .  D
C376        C702   1.501       .  S
C377        H382   1.086       .  S
C377        C378   1.362       .  D
C378        C929   1.485       .  S
C383        C384   1.541       .  S
C383        C389   1.530       .  S
C383        C387   1.539       .  S
C383        C746   1.518       .  S
C384        H391   1.086       .  S
C384        C385   1.369       .  D
C385        C386   1.548       .  S
C385        C694   1.494       .  S
C386        C390   1.540       .  S
C386        C388   1.544       .  S
C386        H392   1.102       .  S
C387        H393   1.086       .  S
C387        C388   1.367       .  D
C388        C697   1.493       .  S
C389        H394   1.085       .  S
C389        C390   1.367       .  D
C390        C913   1.485       .  S
In395       O397   2.250   1_455  S
In395       O398   2.269   1_455  S
In395       O406   2.266       .  S
In395       O400   2.254       .  S
In395       O402   2.254   1_455  S
In395       O403   2.288       .  S
In395       O404   2.255   1_455  S
In395       O407   2.251       .  S
C396        O402   1.261       .  A
C396        O404   1.260       .  A
C396        C718   1.478       .  S
O397        C405   1.258       .  A
O398        C405   1.263       .  A
C399        O406   1.261       .  A
C399        O400   1.260       .  A
C399        C698   1.482       .  S
C401        O403   1.262       .  A
C401        O407   1.259       .  A
C401        C701   1.484       .  S
C405        C689   1.481       .  S
C408        C409   1.536       .  S
C408        C414   1.539       .  S
C408        C412   1.531       .  S
C408        C726   1.515       .  S
C409        H416   1.087       .  S
C409        C410   1.368       .  D
C410        C411   1.546       .  S
C410        C685   1.491       .  S
C411        C415   1.547       .  S
C411        C413   1.539       .  S
C411        H417   1.107       .  S
C412        H418   1.087       .  S
C412        C413   1.357       .  D
C413        C737   1.474       .  S
C414        H419   1.085       .  S
C414        C415   1.372       .  D
C415        C681   1.491       .  S
C420        C421   1.531       .  S
C420        C426   1.532       .  S
C420        C424   1.539       .  S
C420        C710   1.512       .  S
C421        H428   1.087       .  S
C421        C422   1.364       .  D
C422        C423   1.546       .  S
C422        C677   1.483       .  S
C423        C427   1.543       .  S
C423        C425   1.547       .  S
C423        H429   1.104       .  S
C424        H430   1.086       .  S
C424        C425   1.365       .  D
C425        C690   1.493       .  S
C426        H431   1.085       .  S
C426        C427   1.368       .  D
C427        C674   1.485       .  S
In432       O434   2.258       .  S
In432       O435   2.239       .  S
In432       O443   2.258       .  S
In432       O437   2.254       .  S
In432       O439   2.270       .  S
In432       O440   2.253       .  S
In432       O441   2.237   1_655  S
In432       O444   2.242   1_655  S
C433        O439   1.263   1_455  A
C433        O441   1.258       .  A
C433        C693   1.476       .  S
O434        C442   1.259       .  A
O435        C442   1.259       .  A
C436        O443   1.260       .  A
C436        O437   1.261       .  A
C436        C686   1.480       .  S
C438        O440   1.260   1_455  A
C438        O444   1.260       .  A
C438        C750   1.471       .  S
C442        C678   1.474       .  S
C445        C446   1.539       .  S
C445        C451   1.532       .  S
C445        C449   1.540       .  S
C445        C661   1.515       .  S
C446        H453   1.086       .  S
C446        C447   1.367       .  D
C447        C448   1.541       .  S
C447        C669   1.485       .  S
C448        C452   1.540       .  S
C448        C450   1.543       .  S
C448        H454   1.106       .  S
C449        H455   1.086       .  S
C449        C450   1.365       .  D
C450        C665   1.490       .  S
C451        H456   1.085       .  S
C451        C452   1.367       .  D
C452        C714   1.485       .  S
C457        C458   1.534       .  S
C457        C463   1.530       .  S
C457        C649   1.510       .  S
C457       C1437   1.547   1_545  S
C458        H465   1.087       .  S
C458       C1435   1.362   1_545  D
C459        C460   1.541       .  S
C459       C1434   1.369       .  D
C459        C657   1.487   1_554  S
C460        C464   1.530       .  S
C460        C462   1.530       .  S
C460        H466   1.108       .  S
C461       C1433   1.542       .  S
C461        H467   1.084       .  S
C461        C462   1.371       .  D
C462        C653   1.482       .  S
C463        H468   1.086       .  S
C463       C1440   1.366   1_545  D
C464       C1439   1.362       .  D
C464        C730   1.474       .  S
In469       O471   2.253       .  S
In469       O472   2.252       .  S
In469       O480   2.242       .  S
In469       O474   2.253       .  S
In469       O477   2.237       .  S
In469       O478   2.246       .  S
In469       O481   2.248       .  S
In469      O1452   2.255       .  S
C470        O478   1.260       .  A
C470       O1452   1.258       .  A
C470       C1617   1.474       .  S
O471        C479   1.258       .  A
O472        C479   1.258       .  A
C473        O480   1.259       .  A
C473        O474   1.259       .  A
C473        C658   1.470       .  S
C475        O477   1.259       .  A
C475        O481   1.263       .  A
C475        C645   1.470       .  S
O476      In1445   2.254   1_545  S
O476       C1446   1.263       .  A
C479        C670   1.472       .  S
C482        C483   1.545       .  S
C482        C488   1.528       .  S
C482        C486   1.535       .  S
C482        C629   1.513       .  S
C483        H490   1.084       .  S
C483        C484   1.375       .  D
C484        C485   1.538       .  S
C484        C633   1.494       .  S
C485        C489   1.544       .  S
C485        C487   1.540       .  S
C485        H491   1.107       .  S
C486        H492   1.086       .  S
C486        C487   1.366       .  D
C487        C637   1.481       .  S
C488        H493   1.087       .  S
C488        C489   1.360       .  D
C489        C838   1.480       .  S
C494        C495   1.537       .  S
C494        C500   1.532       .  S
C494        C498   1.536       .  S
C494        C621   1.511       .  S
C495        H502   1.084       .  S
C495        C496   1.370       .  D
C496        C497   1.535       .  S
C496        C646   1.485       .  S
C497        C501   1.542       .  S
C497        C499   1.546       .  S
C497        H503   1.110       .  S
C498        H504   1.087       .  S
C498        C499   1.366       .  D
C499        C625   1.488   1_556  S
C500        H505   1.086       .  S
C500        C501   1.364       .  D
C501        C853   1.484       .  S
In506       O508   2.239       .  S
In506       O509   2.239       .  S
In506       O517   2.236       .  S
In506       O511   2.287       .  S
In506       O513   2.270       .  S
In506       O514   2.237       .  S
In506       O515   2.240       .  S
In506       O518   2.258       .  S
C507        O513   1.264       .  A
C507        O515   1.257       .  A
C507        C618   1.476       .  S
O508        C516   1.265       .  A
O509        C516   1.260       .  A
C510        O517   1.253       .  A
C510        O511   1.261       .  A
C510        C626   1.475       .  S
C512        O514   1.257       .  A
C512        O518   1.258       .  A
C512        C638   1.471       .  S
C516        C654   1.472       .  S
C519        C520   1.532       .  S
C519        C525   1.533       .  S
C519        C523   1.539       .  S
C519        C650   1.514       .  S
C520        H527   1.086       .  S
C520        C521   1.365       .  D
C521        C522   1.545       .  S
C521        C613   1.481       .  S
C522        C526   1.545       .  S
C522        C524   1.546       .  S
C522        H528   1.107       .  S
C523        H529   1.086       .  S
C523        C524   1.363       .  D
C524        C617   1.490       .  S
C525        H530   1.086       .  S
C525        C526   1.368       .  D
C526        C682   1.490       .  S
C531        C532   1.538       .  S
C531        C537   1.528       .  S
C531        C535   1.538       .  S
C531        C662   1.515       .  S
C532        H539   1.086       .  S
C532        C533   1.367       .  D
C533        C534   1.546       .  S
C533        C609   1.490       .  S
C534        C538   1.546       .  S
C534        C536   1.546       .  S
C534        H540   1.106       .  S
C535        H541   1.087       .  S
C535        C536   1.365       .  D
C536        C605   1.490       .  S
C537        H542   1.085       .  S
C537        C538   1.367       .  D
C538        C673   1.488       .  S
In543       O545   2.254       .  S
In543       O546   2.260       .  S
In543       O554   2.253       .  S
In543       O548   2.274       .  S
In543       O550   2.255       .  S
In543       O551   2.274       .  S
In543       O552   2.265       .  S
In543       O555   2.254       .  S
C544        O550   1.260       .  A
C544        O552   1.263       .  A
C544        C634   1.482       .  S
O545        C553   1.257       .  A
O546        C553   1.260       .  A
C547        O554   1.257       .  A
C547        O548   1.260       .  A
C547        C610   1.479       .  S
C549        O551   1.260       .  A
C549        O555   1.262       .  A
C549        C601   1.486       .  S
C553        C614   1.474       .  S
C556        C557   1.533       .  S
C556        C562   1.531       .  S
C556        C560   1.541       .  S
C556        C622   1.508       .  S
C557        H564   1.086       .  S
C557        C558   1.362       .  D
C558        C559   1.544       .  S
C558        C642   1.484       .  S
C559        C563   1.540       .  S
C559        C561   1.546       .  S
C559        H565   1.104       .  S
C560        H566   1.086       .  S
C560        C561   1.369       .  D
C561        C597   1.490       .  S
C562        H567   1.086       .  S
C562        C563   1.364       .  D
C563        C778   1.485       .  S
C568        C572   1.532       .  S
C568        C630   1.513       .  S
C568       C1545   1.543       .  S
C568       C1550   1.535       .  S
C569       C1544   1.551   1_545  S
C569        H576   1.085       .  S
C569        C570   1.374       .  D
C570        C571   1.535       .  S
C570        C602   1.491       .  S
C571        C575   1.537       .  S
C571        C573   1.544       .  S
C571        H577   1.108       .  S
C572        H578   1.087       .  S
C572       C1549   1.364       .  D
C573       C1548   1.364   1_545  D
C573        C593   1.488       .  S
C574       C1544   1.534   1_545  S
C574       H1555   1.086   1_545  S
C574        C575   1.366       .  D
C575        C770   1.485       .  S
H579       C1550   1.086       .  S
In580       O582   2.251       .  S
In580       O583   2.249       .  S
In580       O591   2.242       .  S
In580       O585   2.262       .  S
In580       O587   2.265       .  S
In580       O588   2.246       .  S
In580       O589   2.243       .  S
In580       O592   2.254       .  S
C581        O587   1.263       .  A
C581        O589   1.258       .  A
C581        C606   1.477       .  S
O582        C590   1.260       .  A
O583        C590   1.261       .  A
C584        O591   1.259       .  A
C584        O585   1.263       .  A
C584        C598   1.476       .  S
C586        O588   1.261       .  A
C586        O592   1.260       .  A
C586        C594   1.476       .  S
C590       C1642   1.476   1_545  S
C593        H595   1.087   1_545  S
C593        C594   1.344       .  D
C594        H596   1.083       .  S
C597        H599   1.087       .  S
C597        C598   1.345       .  D
C598        H600   1.082       .  S
C601        H603   1.084       .  S
C601        C602   1.346       .  D
C602        H604   1.087       .  S
C605        H607   1.088       .  S
C605        C606   1.343       .  D
C606        H608   1.082       .  S
C609        H611   1.087       .  S
C609        C610   1.345       .  D
C610        H612   1.084       .  S
C613        H615   1.087       .  S
C613        C614   1.342       .  D
C614        H616   1.084       .  S
C617        H619   1.087       .  S
C617        C618   1.342       .  D
C618        H620   1.082       .  S
C621        H623   1.087       .  S
C621        C622   1.343       .  D
C622        H624   1.086       .  S
C625        H627   1.086       .  S
C625        C626   1.343       .  D
C626        H628   1.085   1_554  S
C629        H631   1.087       .  S
C629        C630   1.343       .  D
C630        H632   1.087       .  S
C633        H635   1.086       .  S
C633        C634   1.346       .  D
C634        H636   1.084       .  S
C637        H639   1.087       .  S
C637        C638   1.345       .  D
C638        H640   1.083       .  S
C641       H1619   1.084       .  S
C641        C642   1.342       .  D
C641       C1446   1.471       .  S
C642        H644   1.087       .  S
H643       C1617   1.086       .  S
C645        H647   1.083       .  S
C645        C646   1.343       .  D
C646        H648   1.086       .  S
C649        H651   1.087       .  S
C649        C650   1.343       .  D
C650        H652   1.086       .  S
C653        H655   1.087       .  S
C653        C654   1.341       .  D
C654        H656   1.084       .  S
C657        H659   1.087       .  S
C657        C658   1.346       .  D
C658        H660   1.082       .  S
C661        H663   1.086       .  S
C661        C662   1.348       .  D
C662        H664   1.087       .  S
C665        H667   1.090       .  S
C665        C666   1.344       .  D
C666       H1644   1.084       .  S
C666       C1566   1.475       .  S
H668       C1642   1.084       .  S
C669        H671   1.088       .  S
C669        C670   1.345       .  D
C670        H672   1.084       .  S
C673        H675   1.085       .  S
C673        C674   1.349       .  D
C674        H676   1.085       .  S
C677        H679   1.088       .  S
C677        C678   1.342       .  D
C678        H680   1.083       .  S
C681        H683   1.086       .  S
C681        C682   1.350       .  D
C682        H684   1.085       .  S
C685        H687   1.087       .  S
C685        C686   1.345       .  D
C686        H688   1.082       .  S
C689        H691   1.083       .  S
C689        C690   1.344       .  D
C690        H692   1.087       .  S
C693        H695   1.081       .  S
C693        C694   1.345       .  D
C694        H696   1.087       .  S
C697        H699   1.087       .  S
C697        C698   1.347       .  D
C698        H700   1.084       .  S
C701        H703   1.081       .  S
C701        C702   1.350       .  D
C702        H704   1.086       .  S
C705        H707   1.084       .  S
C705        C706   1.346       .  D
C706        H708   1.086       .  S
C709        H711   1.087       .  S
C709        C710   1.343       .  D
C710        H712   1.087       .  S
C713        H715   1.085       .  S
C713        C714   1.347       .  D
C714        H716   1.086       .  S
C717        H719   1.087       .  S
C717        C718   1.346       .  D
C718        H720   1.082       .  S
C721        H723   1.087       .  S
C721        C722   1.344       .  D
C722        H724   1.084       .  S
C725        H727   1.087       .  S
C725        C726   1.340       .  D
C726        H728   1.087       .  S
C729        H731   1.086       .  S
C729        C730   1.344       .  D
C730        H732   1.086       .  S
C733        H735   1.086       .  S
C733        C734   1.346       .  D
C734        H736   1.083   1_556  S
C737        H739   1.087       .  S
C737        C738   1.341       .  D
C738        H740   1.086       .  S
C741        H743   1.087       .  S
C741        C742   1.346       .  D
C742       H1720   1.080       .  S
C742       C1307   1.477       .  S
H744       C1718   1.086       .  S
C745        H747   1.086       .  S
C745        C746   1.350       .  D
C746        H748   1.086       .  S
C749        H751   1.086       .  S
C749        C750   1.345       .  D
C750        H752   1.084       .  S
C753        H755   1.085   1_545  S
C753        C754   1.339       .  D
C754        H756   1.087       .  S
C757        H759   1.086       .  S
C757        C758   1.343       .  D
C758        H760   1.087       .  S
C761        H763   1.086       .  S
C761        C762   1.340       .  D
C761       C1340   1.471       .  S
C762        H764   1.086       .  S
C765        H767   1.083       .  S
C765        C766   1.344       .  D
C766        H768   1.087       .  S
C769        H771   1.085       .  S
C769        C770   1.346       .  D
C770        H772   1.085       .  S
C773        H775   1.088       .  S
C773        C774   1.341       .  D
C774        H776   1.083       .  S
C777        H779   1.086       .  S
C777        C778   1.348       .  D
C778        H780   1.085       .  S
C781        H783   1.087   1_545  S
C781        C782   1.342       .  D
C782        H784   1.081       .  S
C785        H787   1.083       .  S
C785        C786   1.346       .  D
C785       C1229   1.478   1_545  S
C786        H788   1.087       .  S
C789        H791   1.087       .  S
C789        C790   1.344       .  D
C790        H792   1.082       .  S
C790       C1270   1.477       .  S
C793        H795   1.087       .  S
C793        C794   1.340       .  D
C794        H796   1.083       .  S
C797        H799   1.085       .  S
C797        C798   1.344       .  D
C798       H1776   1.086       .  S
H800       C1774   1.087   1_545  S
C801        H803   1.088       .  S
C801        C802   1.340       .  D
C802        H804   1.084       .  S
C805        H807   1.088       .  S
C805        C806   1.345       .  D
C806        H808   1.082       .  S
C809        H811   1.086       .  S
C809        C810   1.346       .  D
C810        H812   1.077       .  S
C813        H815   1.086       .  S
C813        C814   1.343       .  D
C814        H816   1.087       .  S
C817        H819   1.088       .  S
C817        C818   1.343       .  D
C818        H820   1.084       .  S
C821        H823   1.087       .  S
C821        C822   1.345       .  D
C822        H824   1.082       .  S
C825        H827   1.083       .  S
C825        C826   1.341       .  D
C826        H828   1.086       .  S
C829        H831   1.085       .  S
C829        C830   1.345       .  D
C830        H832   1.087       .  S
C833        H835   1.082       .  S
C833        C834   1.345       .  D
C834        H836   1.087       .  S
C837        H839   1.085       .  S
C837        C838   1.338       .  D
C838        H840   1.086       .  S
C841        H843   1.085       .  S
C841        C842   1.346       .  D
C842        H844   1.087       .  S
C845        H847   1.086       .  S
C845        C846   1.338       .  D
C846        H848   1.087       .  S
C849        H851   1.087       .  S
C849        C850   1.345       .  D
C850        H852   1.086       .  S
C853        H855   1.085       .  S
C853        C854   1.347       .  D
C854        H856   1.085       .  S
C857        H859   1.082       .  S
C857        C858   1.344       .  D
C858        H860   1.087       .  S
C861        H863   1.087   1_556  S
C861        C862   1.340   1_556  D
C862        H864   1.083   1_554  S
C865        H867   1.085       .  S
C865        C866   1.346       .  D
C866        H868   1.086       .  S
C869        H871   1.088       .  S
C869        C870   1.342       .  D
C870        H872   1.081       .  S
C873        H875   1.085       .  S
C873        C874   1.344       .  D
C874        H876   1.086       .  S
C877        H879   1.087       .  S
C877        C878   1.344       .  D
C878        H880   1.084       .  S
C881        H883   1.082       .  S
C881        C882   1.345       .  D
C881       C1081   1.476       .  S
C882        H884   1.087       .  S
C885        H887   1.085       .  S
C885        C886   1.346       .  D
C886        H888   1.085       .  S
C889        H891   1.081       .  S
C889        C890   1.346       .  D
C890        H892   1.087       .  S
C893        H895   1.086       .  S
C893        C894   1.349       .  D
C894        H896   1.086       .  S
C897        H899   1.086       .  S
C897        C898   1.343       .  D
C898        H900   1.086       .  S
C898       C1113   1.470       .  S
C901        H903   1.087       .  S
C901        C902   1.345       .  D
C902        H904   1.084       .  S
C905        H907   1.083       .  S
C905        C906   1.344       .  D
C906        H908   1.087       .  S
C909        H911   1.087       .  S
C909        C910   1.342       .  D
C910        H912   1.087       .  S
C913        H915   1.085       .  S
C913        C914   1.347       .  D
C914        H916   1.085       .  S
C917        H919   1.087       .  S
C917        C918   1.341       .  D
C918        H920   1.084       .  S
C921        H923   1.082       .  S
C921        C922   1.341       .  D
C922        H924   1.088       .  S
C925        H927   1.087       .  S
C925        C926   1.342       .  D
C926        H928   1.087       .  S
C929        H931   1.086       .  S
C929        C930   1.348       .  D
C930        H932   1.085       .  S
C933        H935   1.087       .  S
C933        C934   1.341       .  D
C934        H936   1.083       .  S
C937        H939   1.082       .  S
C937        C938   1.343       .  D
C938        H940   1.087       .  S
C941        H943   1.083       .  S
C941        C942   1.341       .  D
C942        H944   1.087       .  S
C945        H947   1.081       .  S
C945        C946   1.346       .  D
C946        H948   1.087       .  S
C949        H951   1.086       .  S
C949        C950   1.343       .  D
C950        H952   1.085       .  S
C953        H955   1.086       .  S
C953        C954   1.342       .  D
C954        H956   1.084       .  S
C957        H959   1.086       .  S
C957        C958   1.348       .  D
C958        H960   1.081       .  S
C961        H963   1.087       .  S
C961        C962   1.346       .  D
C962        H964   1.086       .  S
C965        H967   1.086       .  S
C965        C966   1.341       .  D
C966        H968   1.086       .  S
C969        H971   1.086       .  S
C969        C970   1.341       .  D
C970        H972   1.084       .  S
C973        H975   1.082       .  S
C973        C974   1.346       .  D
C974        H976   1.087       .  S
C977        C978   1.540       .  S
C977        C983   1.536       .  S
C977        C981   1.542       .  S
C977       C1937   1.518       .  S
C978        H985   1.086       .  S
C978        C979   1.368       .  D
C979        C980   1.540       .  S
C979       C1950   1.488       .  S
C980        C984   1.530       .  S
C980        C982   1.538       .  S
C980        H986   1.100       .  S
C981        H987   1.086       .  S
C981        C982   1.365       .  D
C982       C1945   1.486       .  S
C983        H988   1.086       .  S
C983        C984   1.368       .  D
C984       C1941   1.478       .  S
C989        C990   1.536       .  S
C989        C995   1.539       .  S
C989        C993   1.535       .  S
C989       C1921   1.512       .  S
C990        H997   1.087       .  S
C990        C991   1.368       .  D
C991        C992   1.546       .  S
C991       C1933   1.489   1_554  S
C992        C996   1.539       .  S
C992        C994   1.533       .  S
C992        H998   1.107       .  S
C993        H999   1.085       .  S
C993        C994   1.366       .  D
C994       C1929   1.481       .  S
C995       H1000   1.085       .  S
C995        C996   1.366       .  D
C996       C1925   1.484       .  S
In1001     O1003   2.250       .  S
In1001     O1004   2.243       .  S
In1001     O1012   2.246       .  S
In1001     O1006   2.255       .  S
In1001     O1008   2.263       .  S
In1001     O1009   2.246       .  S
In1001     O1010   2.244       .  S
In1001     O1013   2.249       .  S
C1002      O1008   1.260       .  A
C1002      O1010   1.257       .  A
C1002      C1913   1.473       .  S
O1003      C1011   1.262       .  A
O1004      C1011   1.260       .  A
C1005      O1012   1.259       .  A
C1005      O1006   1.261       .  A
C1005      C1934   1.474       .  S
C1007      O1009   1.259       .  A
C1007      O1013   1.258       .  A
C1007      C1917   1.470       .  S
C1011      C1949   1.474       .  S
C1014      C1015   1.542       .  S
C1014      C1020   1.536       .  S
C1014      C1018   1.538       .  S
C1014      C1901   1.518       .  S
C1015      H1022   1.086       .  S
C1015      C1016   1.364       .  D
C1016      C1017   1.541       .  S
C1016      C1914   1.488       .  S
C1017      C1021   1.539       .  S
C1017      C1019   1.547       .  S
C1017      H1023   1.104       .  S
C1018      H1024   1.087       .  S
C1018      C1019   1.368       .  D
C1019      C1909   1.492       .  S
C1020      H1025   1.085       .  S
C1020      C1021   1.367       .  D
C1021      C1906   1.487       .  S
C1026      C1027   1.538       .  S
C1026      C1032   1.535       .  S
C1026      C1030   1.538       .  S
C1026      C1885   1.513       .  S
C1027      H1034   1.086       .  S
C1027      C1028   1.363       .  D
C1028      C1029   1.541       .  S
C1028      C1893   1.484       .  S
C1029      C1033   1.536       .  S
C1029      C1031   1.533       .  S
C1029      H1035   1.110       .  S
C1030      H1036   1.084       .  S
C1030      C1031   1.372       .  D
C1031      C1898   1.485       .  S
C1032      H1037   1.085       .  S
C1032      C1033   1.367       .  D
C1033      C1890   1.481       .  S
In1038     O1040   2.240       .  S
In1038     O1041   2.246       .  S
In1038     O1049   2.234       .  S
In1038     O1043   2.275       .  S
In1038     O1045   2.261       .  S
In1038     O1046   2.240       .  S
In1038     O1047   2.247       .  S
In1038     O1050   2.259       .  S
C1039      O1045   1.262       .  A
C1039      O1047   1.258       .  A
C1039      C1881   1.477       .  S
O1040      C1048   1.259       .  A
O1041      C1048   1.259       .  A
C1042      O1049   1.256       .  A
C1042      O1043   1.262       .  A
C1042      C1910   1.475       .  S
C1044      O1046   1.256       .  A
C1044      O1050   1.262       .  A
C1044      C1897   1.472       .  S
C1048      C1946   1.468       .  S
C1051      C1052   1.543       .  S
C1051      C1057   1.524       .  S
C1051      C1055   1.537       .  S
C1051      C1922   1.512       .  S
C1052      H1059   1.086       .  S
C1052      C1053   1.371       .  D
C1053      C1054   1.547       .  S
C1053      C1877   1.494       .  S
C1054      C1058   1.542       .  S
C1054      C1056   1.546       .  S
C1054      H1060   1.104       .  S
C1055      H1061   1.086       .  S
C1055      C1056   1.366       .  D
C1056      C1873   1.492       .  S
C1057      H1062   1.086       .  S
C1057      C1058   1.360       .  D
C1058      C1869   1.484       .  S
C1063      C1064   1.540       .  S
C1063      C1069   1.531       .  S
C1063      C1938   1.516       .  S
C1064      H1071   1.086       .  S
C1065      C1066   1.549       .  S
C1065      C1866   1.491       .  S
C1066      C1070   1.544       .  S
C1066      C1068   1.546       .  S
C1066      H1072   1.104       .  S
C1067      H1073   1.086       .  S
C1067      C1068   1.365   1_545  D
C1068      C1882   1.490       .  S
C1069      H1074   1.086       .  S
C1070      C1862   1.487       .  S
In1075     O1077   2.255       .  S
In1075     O1078   2.252       .  S
In1075     O1086   2.247       .  S
In1075     O1080   2.265       .  S
In1075     O1082   2.263       .  S
In1075     O1084   2.232       .  S
In1075     O1087   2.243       .  S
C1076      O1082   1.262       .  A
C1076      O1084   1.257       .  A
C1076      C1894   1.471       .  S
O1077      C1085   1.261       .  A
O1078      C1085   1.263       .  A
C1079      O1086   1.260       .  A
C1079      O1080   1.262       .  A
C1079      C1878   1.478       .  S
C1081      O1087   1.259   1_545  A
C1085      C1865   1.481       .  S
C1088      C1092   1.536       .  S
C1088      C1902   1.515   1_545  S
C1089      H1096   1.086       .  S
C1089      C1090   1.366       .  D
C1090      C1091   1.542       .  S
C1090      C1918   1.482       .  S
C1091      C1095   1.539       .  S
C1091      C1093   1.542       .  S
C1091      H1097   1.104       .  S
C1092      H1098   1.087   1_545  S
C1093      C1853   1.480       .  S
C1094      C1095   1.365       .  D
C1095      C1850   1.479       .  S
C1100      C1101   1.546       .  S
C1100      C1106   1.530       .  S
C1100      C1104   1.532       .  S
C1100      C1886   1.515       .  S
C1101      H1108   1.084       .  S
C1101      C1102   1.368       .  D
C1102      C1103   1.544       .  S
C1102      C1858   1.488       .  S
C1103      C1107   1.543       .  S
C1103      C1105   1.540       .  S
C1103      H1109   1.108       .  S
C1104      H1110   1.087       .  S
C1104      C1105   1.362       .  D
C1105      C1845   1.477       .  S
C1106      H1111   1.086       .  S
C1106      C1107   1.367       .  D
C1107      C1842   1.491       .  S
In1112     O1114   2.239       .  S
In1112     O1115   2.237       .  S
In1112     O1123   2.270       .  S
In1112     O1117   2.231       .  S
In1112     O1119   2.247       .  S
In1112     O1120   2.238       .  S
In1112     O1121   2.244       .  S
In1112     O1124   2.265       .  S
C1113      O1119   1.259       .  A
C1113      O1121   1.260       .  A
O1114      C1122   1.263       .  A
O1115      C1122   1.261       .  A
C1116      O1123   1.257       .  A
C1116      O1117   1.256       .  A
C1116      C1854   1.471       .  S
C1118      O1120   1.257       .  A
C1118      O1124   1.257       .  A
C1118      C1846   1.471       .  S
C1122      C1930   1.470       .  S
C1125      C1126   1.536       .  S
C1125      C1131   1.522       .  S
C1125      C1129   1.533       .  S
C1125      C1825   1.502       .  S
C1126      H1133   1.086       .  S
C1126      C1127   1.364       .  D
C1127      C1128   1.546       .  S
C1127      C1834   1.486       .  S
C1128      C1132   1.545       .  S
C1128      C1130   1.547       .  S
C1128      H1134   1.105       .  S
C1129      H1135   1.086       .  S
C1129      C1130   1.366       .  D
C1130      C1837   1.484   1_556  S
C1131      H1136   1.086       .  S
C1131      C1132   1.364       .  D
C1132      C1830   1.483       .  S
C1137      C1138   1.550       .  S
C1137      C1143   1.533       .  S
C1137      C1141   1.533       .  S
C1137      C1809   1.517       .  S
C1138      H1145   1.084       .  S
C1138      C1139   1.375       .  D
C1139      C1140   1.533       .  S
C1139      C1818   1.491       .  S
C1140      C1144   1.539       .  S
C1140      C1142   1.544       .  S
C1140      H1146   1.108       .  S
C1141      H1147   1.087       .  S
C1141      C1142   1.361       .  D
C1142      C1822   1.486       .  S
C1143      H1148   1.086       .  S
C1143      C1144   1.368       .  D
C1144      C1813   1.486       .  S
In1149     O1151   2.229       .  S
In1149     O1152   2.253       .  S
In1149     O1160   2.243       .  S
In1149     O1154   2.239       .  S
In1149     O1156   2.241       .  S
In1149     O1157   2.253       .  S
In1149     O1158   2.238       .  S
In1149     O1161   2.235       .  S
C1150      O1156   1.264       .  A
C1150      O1158   1.260       .  A
C1150      C1805   1.471       .  S
O1151      C1159   1.258       .  A
O1152      C1159   1.264       .  A
C1153      O1160   1.260       .  A
C1153      O1154   1.263       .  A
C1153      C1838   1.472       .  S
C1155      O1157   1.264       .  A
C1155      O1161   1.258       .  A
C1155      C1821   1.472       .  S
C1159      C1801   1.470       .  S
C1162      C1163   1.534       .  S
C1162      C1168   1.529       .  S
C1162      C1166   1.537       .  S
C1162      C1789   1.512       .  S
C1163      H1170   1.087       .  S
C1163      C1164   1.367       .  D
C1164      C1165   1.547       .  S
C1164      C1797   1.488       .  S
C1165      C1169   1.536       .  S
C1165      C1167   1.540       .  S
C1165      H1171   1.102       .  S
C1166      H1172   1.086       .  S
C1166      C1167   1.363       .  D
C1167      C1793   1.481       .  S
C1168      H1173   1.085       .  S
C1168      C1169   1.369       .  D
C1169      C1942   1.482       .  S
C1174      C1175   1.539       .  S
C1174      C1180   1.529       .  S
C1174      C1178   1.532       .  S
C1174      C1782   1.512       .  S
C1175      H1182   1.086       .  S
C1175      C1176   1.370       .  D
C1176      C1177   1.548       .  S
C1176      C1785   1.492   1_554  S
C1177      C1181   1.543       .  S
C1177      C1179   1.546       .  S
C1177      H1183   1.105       .  S
C1178      H1184   1.086       .  S
C1178      C1179   1.364       .  D
C1179      C1802   1.484       .  S
C1180      H1185   1.086       .  S
C1180      C1181   1.364       .  D
C1181      C1926   1.488       .  S
In1186     O1188   2.248       .  S
In1186     O1189   2.248       .  S
In1186     O1197   2.253       .  S
In1186     O1191   2.259       .  S
In1186     O1193   2.264       .  S
In1186     O1194   2.256       .  S
In1186     O1195   2.241       .  S
In1186     O1198   2.252       .  S
C1187      O1193   1.263       .  A
C1187      O1195   1.258       .  A
C1187      C1778   1.476       .  S
O1188      C1196   1.260       .  A
O1189      C1196   1.262       .  A
C1190      O1197   1.260       .  A
C1190      O1191   1.263       .  A
C1190      C1786   1.480       .  S
C1192      O1194   1.261       .  A
C1192      O1198   1.259       .  A
C1192      C1833   1.477       .  S
C1196      C1798   1.475       .  S
C1199      C1200   1.536       .  S
C1199      C1205   1.536       .  S
C1199      C1781   1.514       .  S
C1200      H1207   1.086       .  S
C1201      C1202   1.546       .  S
C1201      C1774   1.496       .  S
C1202      C1206   1.541       .  S
C1202      C1204   1.543       .  S
C1202      H1208   1.105       .  S
C1203      H1209   1.087       .  S
C1203      C1204   1.360       .  D
C1204      C1806   1.481       .  S
C1205      H1210   1.086       .  S
C1206      C1870   1.483       .  S
C1211      C1212   1.535       .  S
C1211      C1217   1.530       .  S
C1211      C1215   1.538       .  S
C1211      C1790   1.512       .  S
C1212      H1219   1.087       .  S
C1212      C1213   1.365       .  D
C1213      C1214   1.546       .  S
C1213      C1769   1.489       .  S
C1214      C1218   1.545       .  S
C1214      C1216   1.546       .  S
C1214      H1220   1.105       .  S
C1215      H1221   1.086       .  S
C1215      C1216   1.363       .  D
C1216      C1765   1.487       .  S
C1217      H1222   1.085       .  S
C1217      C1218   1.368       .  D
C1218      C1861   1.487       .  S
In1223     O1225   2.265       .  S
In1223     O1226   2.275       .  S
In1223     O1234   2.269       .  S
In1223     O1228   2.252       .  S
In1223     O1230   2.260       .  S
In1223     O1232   2.261       .  S
In1223     O1235   2.251       .  S
C1224      O1230   1.259       .  A
C1224      O1232   1.262       .  A
C1224      C1817   1.483       .  S
O1225      C1233   1.257       .  A
O1226      C1233   1.258       .  A
C1227      O1234   1.259       .  A
C1227      O1228   1.258       .  A
C1227      C1770   1.479       .  S
C1229      O1235   1.260       .  A
C1233      C1773   1.482       .  S
C1236      C1240   1.533       .  S
C1236      C1826   1.505       .  S
C1237      H1244   1.086       .  S
C1237      C1238   1.364       .  D
C1238      C1239   1.545       .  S
C1238      C1777   1.489       .  S
C1239      C1243   1.537       .  S
C1239      C1241   1.547       .  S
C1239      H1245   1.103       .  S
C1240      H1246   1.086       .  S
C1241      C1757   1.486       .  S
C1242      C1243   1.365       .  D
C1243      C1753   1.479       .  S
C1248      C1249   1.544       .  S
C1248      C1254   1.536       .  S
C1248      C1252   1.537       .  S
C1248      C1810   1.519       .  S
C1249      H1256   1.086       .  S
C1249      C1250   1.366       .  D
C1250      C1251   1.541       .  S
C1250      C1762   1.489       .  S
C1251      C1255   1.536       .  S
C1251      C1253   1.536       .  S
C1251      H1257   1.108       .  S
C1252      H1258   1.083       .  S
C1252      C1253   1.372       .  D
C1253      C1749   1.488       .  S
C1254      H1259   1.086       .  S
C1254      C1255   1.367       .  D
C1255      C1745   1.484       .  S
In1260     O1262   2.255       .  S
In1260     O1263   2.249       .  S
In1260     O1271   2.259       .  S
In1260     O1265   2.238       .  S
In1260     O1267   2.233       .  S
In1260     O1268   2.255       .  S
In1260     O1269   2.248       .  S
In1260     O1272   2.242       .  S
C1261      O1267   1.259       .  A
C1261      O1269   1.259       .  A
C1261      C1794   1.469       .  S
O1262      C1270   1.259       .  A
O1263      C1270   1.261       .  A
C1264      O1271   1.262       .  A
C1264      O1265   1.256       .  A
C1264      C1750   1.473       .  S
C1266      O1268   1.261       .  A
C1266      O1272   1.257       .  A
C1266      C1758   1.472       .  S
C1273      C1274   1.546       .  S
C1273      C1279   1.535       .  S
C1273      C1277   1.538       .  S
C1273      C1734   1.515       .  S
C1274      H1281   1.084       .  S
C1274      C1275   1.372       .  D
C1275      C1276   1.530       .  S
C1275      C1738   1.486       .  S
C1276      C1280   1.532       .  S
C1276      C1278   1.540       .  S
C1276      H1282   1.110       .  S
C1277      H1283   1.086       .  S
C1277      C1278   1.368       .  D
C1278      C1742   1.485   1_556  S
C1279      H1284   1.086       .  S
C1279      C1280   1.362       .  D
C1280      C1849   1.475       .  S
C1285      C1289   1.544       .  S
C1285      C1721   1.514       .  S
C1286      H1293   1.086       .  S
C1286      C1287   1.360       .  D
C1287      C1288   1.540       .  S
C1287      C1725   1.483       .  S
C1288      C1292   1.541       .  S
C1288      C1290   1.535       .  S
C1288      H1294   1.109       .  S
C1289      H1295   1.084       .  S
C1290      C1730   1.491       .  S
C1291      C1292   1.368       .  D
C1292      C1841   1.488       .  S
In1297     O1299   2.252   1_455  S
In1297     O1300   2.257   1_455  S
In1297     O1308   2.239       .  S
In1297     O1302   2.259       .  S
In1297     O1304   2.255       .  S
In1297     O1305   2.256       .  S
In1297     O1306   2.247   1_455  S
In1297     O1309   2.271       .  S
C1298      O1304   1.258   1_655  A
C1298      O1306   1.262       .  A
C1298      C1714   1.476       .  S
O1299      C1307   1.260       .  A
O1300      C1307   1.261       .  A
C1301      O1308   1.258       .  A
C1301      O1302   1.260       .  A
C1301      C1741   1.471       .  S
C1303      O1305   1.256       .  A
C1303      O1309   1.260       .  A
C1303      C1729   1.479       .  S
C1310      C1311   1.545       .  S
C1310      C1316   1.537       .  S
C1310      C1314   1.536       .  S
C1310      C1701   1.514       .  S
C1311      H1318   1.085       .  S
C1311      C1312   1.375       .  D
C1312      C1313   1.533       .  S
C1312      C1709   1.483   1_554  S
C1313      C1317   1.532       .  S
C1313      C1315   1.531       .  S
C1313      H1319   1.111       .  S
C1314      H1320   1.087       .  S
C1314      C1315   1.355       .  D
C1315      C1717   1.467       .  S
C1316      H1321   1.086       .  S
C1316      C1317   1.367       .  D
C1317      C1705   1.480       .  S
C1322      C1323   1.535       .  S
C1322      C1328   1.531       .  S
C1322      C1685   1.517       .  S
C1323      H1330   1.086       .  S
C1324      C1325   1.530       .  S
C1324      C1697   1.476       .  S
C1325      C1329   1.536       .  S
C1325      C1327   1.542       .  S
C1325      H1331   1.109       .  S
C1326      H1332   1.086   1_565  S
C1326      C1327   1.367       .  D
C1327      C1693   1.487       .  S
C1328      H1333   1.086       .  S
C1329      C1689   1.480       .  S
In1334     O1336   2.258       .  S
In1334     O1337   2.230       .  S
In1334     O1345   2.238       .  S
In1334     O1339   2.266       .  S
In1334     O1341   2.244   1_655  S
In1334     O1343   2.243   1_655  S
In1334     O1346   2.243   1_655  S
C1335      O1341   1.261       .  A
C1335      O1343   1.259       .  A
C1335      C1681   1.468       .  S
O1336      C1344   1.262       .  A
O1337      C1344   1.255       .  A
C1338      O1345   1.260       .  A
C1338      O1339   1.258       .  A
C1338      C1710   1.477       .  S
C1340      O1346   1.262   1_545  A
C1344      C1698   1.467       .  S
C1347      C1348   1.534       .  S
C1347      C1353   1.535       .  S
C1347      C1351   1.537       .  S
C1347      C1733   1.513       .  S
C1348      H1355   1.086       .  S
C1348      C1349   1.362       .  D
C1349      C1350   1.540       .  S
C1349      C1682   1.477       .  S
C1350      C1354   1.540       .  S
C1350      C1352   1.546       .  S
C1350      H1356   1.106       .  S
C1351      H1357   1.086       .  S
C1351      C1352   1.367       .  D
C1352      C1678   1.488       .  S
C1353      H1358   1.086       .  S
C1353      C1354   1.369       .  D
C1354      C1905   1.488       .  S
C1359      C1360   1.541       .  S
C1359      C1365   1.530       .  S
C1359      C1363   1.537       .  S
C1359      C1722   1.512       .  S
C1360      H1367   1.084       .  S
C1360      C1361   1.372       .  D
C1361      C1362   1.533       .  S
C1361      C1670   1.485       .  S
C1362      C1366   1.539       .  S
C1362      C1364   1.541       .  S
C1362      H1368   1.109       .  S
C1363      H1369   1.086       .  S
C1363      C1364   1.365       .  D
C1364      C1673   1.485       .  S
C1365      H1370   1.085       .  S
C1365      C1366   1.367       .  D
C1366      C1889   1.484       .  S
In1371     O1373   2.247   1_455  S
In1371     O1374   2.257       .  S
In1371     O1382   2.255       .  S
In1371     O1376   2.256       .  S
In1371     O1378   2.261   1_455  S
In1371     O1379   2.255       .  S
In1371     O1380   2.236   1_455  S
In1371     O1383   2.248       .  S
C1372      O1378   1.262       .  A
C1372      O1380   1.260       .  A
C1372      C1694   1.473       .  S
O1373      C1381   1.263       .  A
O1374      C1381   1.261   1_455  A
C1375      O1382   1.257       .  A
C1375      O1376   1.258       .  A
C1375      C1674   1.473       .  S
C1377      O1379   1.261       .  A
C1377      O1383   1.257       .  A
C1377      C1677   1.474       .  S
C1381      C1665   1.480       .  S
C1384      C1385   1.536       .  S
C1384      C1390   1.527       .  S
C1384      C1388   1.545       .  S
C1384      C1702   1.507       .  S
C1385      H1392   1.087       .  S
C1385      C1386   1.364       .  D
C1386      C1387   1.540       .  S
C1386      C1661   1.483       .  S
C1387      C1391   1.531       .  S
C1387      C1389   1.532       .  S
C1387      H1393   1.108       .  S
C1388      H1394   1.084       .  S
C1388      C1389   1.374       .  D
C1389      C1713   1.483       .  S
C1390      H1395   1.087       .  S
C1390      C1391   1.363       .  D
C1391      C1657   1.470       .  S
C1396      C1397   1.537       .  S
C1396      C1402   1.536       .  S
C1396      C1400   1.546       .  S
C1396      C1686   1.515       .  S
C1397      H1404   1.087       .  S
C1397      C1398   1.364       .  D
C1398      C1399   1.541       .  S
C1398      C1653   1.485       .  S
C1399      C1403   1.536       .  S
C1399      C1401   1.534       .  S
C1399      H1405   1.108       .  S
C1400      H1406   1.084       .  S
C1400      C1401   1.372       .  D
C1401      C1666   1.489       .  S
C1402      H1407   1.086       .  S
C1402      C1403   1.367       .  D
C1403      C1650   1.482       .  S
In1408     O1410   2.246       .  S
In1408     O1411   2.256       .  S
In1408     O1419   2.248       .  S
In1408     O1413   2.238       .  S
In1408     O1415   2.242       .  S
In1408     O1416   2.255   1_655  S
In1408     O1417   2.245   1_655  S
In1408     O1420   2.232   1_655  S
C1409      O1415   1.260   1_455  A
C1409      O1417   1.263       .  A
C1409      C1669   1.473       .  S
O1410      C1418   1.257       .  A
O1411      C1418   1.260       .  A
C1412      O1419   1.258       .  A
C1412      O1413   1.260       .  A
C1412      C1662   1.471       .  S
C1414      O1416   1.263       .  A
C1414      O1420   1.258       .  A
C1414      C1726   1.471       .  S
C1418      C1654   1.472       .  S
C1421      C1422   1.531       .  S
C1421      C1427   1.526       .  S
C1421      C1425   1.538       .  S
C1421      C1637   1.505       .  S
C1422      H1429   1.087       .  S
C1422      C1423   1.363       .  D
C1423      C1424   1.546       .  S
C1423      C1645   1.484       .  S
C1424      C1428   1.544       .  S
C1424      C1426   1.544       .  S
C1424      H1430   1.105       .  S
C1425      H1431   1.087       .  S
C1425      C1426   1.365       .  D
C1426      C1641   1.486       .  S
C1427      H1432   1.086       .  S
C1427      C1428   1.366       .  D
C1428      C1690   1.484       .  S
C1433      C1434   1.538       .  S
C1433      C1439   1.538       .  S
C1433      C1625   1.514       .  S
C1434      H1441   1.087       .  S
C1435      C1436   1.543       .  S
C1435      C1633   1.486   1_554  S
C1436      C1440   1.537       .  S
C1436      C1438   1.532       .  S
C1436      H1442   1.109       .  S
C1437      H1443   1.085   1_565  S
C1437      C1438   1.373       .  D
C1438      C1629   1.484       .  S
C1439      H1444   1.086       .  S
C1440      C1706   1.482       .  S
In1445     O1447   2.245       .  S
In1445     O1448   2.243       .  S
In1445     O1456   2.245       .  S
In1445     O1450   2.249       .  S
In1445     O1453   2.257       .  S
In1445     O1454   2.235       .  S
In1445     O1457   2.239       .  S
C1446      O1454   1.258   1_545  A
O1447      C1455   1.259       .  A
O1448      C1455   1.263       .  A
C1449      O1456   1.259       .  A
C1449      O1450   1.262       .  A
C1449      C1634   1.473       .  S
C1451      O1453   1.262       .  A
C1451      O1457   1.259       .  A
C1451      C1621   1.473       .  S
C1455      C1646   1.473       .  S
C1458      C1459   1.543       .  S
C1458      C1464   1.537       .  S
C1458      C1462   1.533       .  S
C1458      C1605   1.520       .  S
C1459      H1466   1.086       .  S
C1459      C1460   1.368       .  D
C1460      C1461   1.543       .  S
C1460      C1609   1.493       .  S
C1461      C1465   1.537       .  S
C1461      C1463   1.543       .  S
C1461      H1467   1.105       .  S
C1462      H1468   1.087       .  S
C1462      C1463   1.363       .  D
C1463      C1613   1.482       .  S
C1464      H1469   1.086       .  S
C1464      C1465   1.370       .  D
C1465      C1814   1.484       .  S
C1470      C1471   1.535       .  S
C1470      C1476   1.542       .  S
C1470      C1474   1.539       .  S
C1470      C1597   1.520       .  S
C1471      H1478   1.087       .  S
C1471      C1472   1.362       .  D
C1472      C1473   1.543       .  S
C1472      C1622   1.488       .  S
C1473      C1477   1.536       .  S
C1473      C1475   1.540       .  S
C1473      H1479   1.105       .  S
C1474      H1480   1.087       .  S
C1474      C1475   1.370       .  D
C1475      C1601   1.486       .  S
C1476      H1481   1.082       .  S
C1476      C1477   1.364       .  D
C1477      C1829   1.481       .  S
In1482     O1484   2.246       .  S
In1482     O1485   2.265       .  S
In1482     O1493   2.244       .  S
In1482     O1487   2.254       .  S
In1482     O1489   2.243       .  S
In1482     O1490   2.262       .  S
In1482     O1491   2.230       .  S
In1482     O1494   2.247       .  S
C1483      O1489   1.260       .  A
C1483      O1491   1.264       .  A
C1483      C1594   1.470       .  S
O1484      C1492   1.260       .  A
O1485      C1492   1.259       .  A
C1486      O1493   1.258       .  A
C1486      O1487   1.259       .  A
C1486      C1602   1.469       .  S
C1488      O1490   1.260       .  A
C1488      O1494   1.255       .  A
C1488      C1614   1.472       .  S
C1492      C1630   1.479       .  S
C1495      C1496   1.540       .  S
C1495      C1501   1.532       .  S
C1495      C1499   1.538       .  S
C1495      C1626   1.512       .  S
C1496      H1503   1.089       .  S
C1496      C1497   1.368       .  D
C1497      C1498   1.540       .  S
C1497      C1589   1.486       .  S
C1498      C1502   1.528       .  S
C1498      C1500   1.530       .  S
C1498      H1504   1.106       .  S
C1499      H1505   1.084       .  S
C1499      C1500   1.371       .  D
C1500      C1593   1.479       .  S
C1501      H1506   1.086       .  S
C1501      C1502   1.362       .  D
C1502      C1658   1.471       .  S
C1507      C1508   1.531       .  S
C1507      C1513   1.527       .  S
C1507      C1511   1.535       .  S
C1507      C1638   1.506       .  S
C1508      H1515   1.087       .  S
C1508      C1509   1.366       .  D
C1509      C1510   1.549       .  S
C1509      C1585   1.488       .  S
C1510      C1514   1.546       .  S
C1510      C1512   1.544       .  S
C1510      H1516   1.105       .  S
C1511      H1517   1.086       .  S
C1511      C1512   1.362       .  D
C1512      C1581   1.481       .  S
C1513      H1518   1.086       .  S
C1513      C1514   1.367       .  D
C1514      C1649   1.489       .  S
In1519     O1521   2.263       .  S
In1519     O1522   2.241       .  S
In1519     O1530   2.265       .  S
In1519     O1524   2.261       .  S
In1519     O1526   2.265       .  S
In1519     O1527   2.241       .  S
In1519     O1528   2.252       .  S
In1519     O1531   2.247       .  S
C1520      O1526   1.261       .  A
C1520      O1528   1.259       .  A
C1520      C1610   1.479       .  S
O1521      C1529   1.258       .  A
O1522      C1529   1.256       .  A
C1523      O1530   1.256       .  A
C1523      O1524   1.258       .  A
C1523      C1586   1.478       .  S
C1525      O1527   1.259       .  A
C1525      O1531   1.264       .  A
C1525      C1577   1.474       .  S
C1529      C1590   1.472       .  S
C1532      C1533   1.542       .  S
C1532      C1538   1.531       .  S
C1532      C1536   1.541       .  S
C1532      C1598   1.513       .  S
C1533      H1540   1.085       .  S
C1533      C1534   1.370       .  D
C1534      C1535   1.531       .  S
C1534      C1618   1.480       .  S
C1535      C1539   1.533       .  S
C1535      C1537   1.546       .  S
C1535      H1541   1.107       .  S
C1536      H1542   1.086       .  S
C1536      C1537   1.370       .  D
C1537      C1573   1.493       .  S
C1538      H1543   1.085       .  S
C1538      C1539   1.362       .  D
C1539      C1754   1.480       .  S
C1544      C1548   1.534       .  S
C1544      C1606   1.519       .  S
C1545      H1552   1.084       .  S
C1545      C1546   1.372       .  D
C1546      C1547   1.533       .  S
C1546      C1578   1.485       .  S
C1547      C1551   1.538       .  S
C1547      C1549   1.544       .  S
C1547      H1553   1.107       .  S
C1548      H1554   1.086       .  S
C1549      C1569   1.485       .  S
C1550      C1551   1.368       .  D
C1551      C1746   1.487       .  S
In1556     O1558   2.242       .  S
In1556     O1559   2.257       .  S
In1556     O1567   2.236       .  S
In1556     O1561   2.267       .  S
In1556     O1563   2.245       .  S
In1556     O1564   2.242       .  S
In1556     O1565   2.237       .  S
In1556     O1568   2.246       .  S
C1557      O1563   1.263       .  A
C1557      O1565   1.259       .  A
C1557      C1582   1.471       .  S
O1558      C1566   1.260       .  A
O1559      C1566   1.263       .  A
C1560      O1567   1.259       .  A
C1560      O1561   1.262       .  A
C1560      C1574   1.474       .  S
C1562      O1564   1.262       .  A
C1562      O1568   1.259       .  A
C1562      C1570   1.473       .  S
C1569      H1571   1.087       .  S
C1569      C1570   1.342       .  D
C1570      H1572   1.082       .  S
C1573      H1575   1.087       .  S
C1573      C1574   1.347       .  D
C1574      H1576   1.081       .  S
C1577      H1579   1.084       .  S
C1577      C1578   1.341       .  D
C1578      H1580   1.087       .  S
C1581      H1583   1.087       .  S
C1581      C1582   1.340       .  D
C1582      H1584   1.082       .  S
C1585      H1587   1.087       .  S
C1585      C1586   1.343       .  D
C1586      H1588   1.080       .  S
C1589      H1591   1.087       .  S
C1589      C1590   1.346       .  D
C1590      H1592   1.082       .  S
C1593      H1595   1.087       .  S
C1593      C1594   1.339       .  D
C1594      H1596   1.085       .  S
C1597      H1599   1.088       .  S
C1597      C1598   1.344       .  D
C1598      H1600   1.082       .  S
C1601      H1603   1.087   1_556  S
C1601      C1602   1.345   1_556  D
C1602      H1604   1.080   1_554  S
C1605      H1607   1.087       .  S
C1605      C1606   1.344       .  D
C1606      H1608   1.087       .  S
C1609      H1611   1.086       .  S
C1609      C1610   1.347       .  D
C1610      H1612   1.081       .  S
C1613      H1615   1.088       .  S
C1613      C1614   1.341       .  D
C1614      H1616   1.085       .  S
C1617      C1618   1.342       .  D
C1618      H1620   1.087       .  S
C1621      H1623   1.081       .  S
C1621      C1622   1.343       .  D
C1622      H1624   1.087       .  S
C1625      H1627   1.087       .  S
C1625      C1626   1.344       .  D
C1626      H1628   1.087       .  S
C1629      H1631   1.087       .  S
C1629      C1630   1.343       .  D
C1630      H1632   1.085       .  S
C1633      H1635   1.087   1_565  S
C1633      C1634   1.343       .  D
C1634      H1636   1.083       .  S
C1637      H1639   1.087       .  S
C1637      C1638   1.342       .  D
C1638      H1640   1.086       .  S
C1641      H1643   1.087       .  S
C1641      C1642   1.344       .  D
C1645      H1647   1.088       .  S
C1645      C1646   1.341       .  D
C1646      H1648   1.083       .  S
C1649      H1651   1.085       .  S
C1649      C1650   1.347       .  D
C1650      H1652   1.085       .  S
C1653      H1655   1.088       .  S
C1653      C1654   1.343       .  D
C1654      H1656   1.084       .  S
C1657      H1659   1.087       .  S
C1657      C1658   1.338       .  D
C1658      H1660   1.086       .  S
C1661      H1663   1.087       .  S
C1661      C1662   1.343       .  D
C1662      H1664   1.082       .  S
C1665      H1667   1.084       .  S
C1665      C1666   1.344       .  D
C1666      H1668   1.086       .  S
C1669      H1671   1.084       .  S
C1669      C1670   1.342       .  D
C1670      H1672   1.086       .  S
C1673      H1675   1.087       .  S
C1673      C1674   1.344       .  D
C1674      H1676   1.084       .  S
C1677      H1679   1.082       .  S
C1677      C1678   1.343       .  D
C1678      H1680   1.087       .  S
C1681      H1683   1.085       .  S
C1681      C1682   1.341       .  D
C1682      H1684   1.086       .  S
C1685      H1687   1.086       .  S
C1685      C1686   1.345       .  D
C1686      H1688   1.086       .  S
C1689      H1691   1.085       .  S
C1689      C1690   1.346       .  D
C1690      H1692   1.086       .  S
C1693      H1695   1.086       .  S
C1693      C1694   1.345       .  D
C1694      H1696   1.084       .  S
C1697      H1699   1.087       .  S
C1697      C1698   1.339       .  D
C1698      H1700   1.086   1_565  S
C1701      H1703   1.086       .  S
C1701      C1702   1.347       .  D
C1702      H1704   1.087       .  S
C1705      H1707   1.085       .  S
C1705      C1706   1.343       .  D
C1706      H1708   1.086       .  S
C1709      H1711   1.087       .  S
C1709      C1710   1.342       .  D
C1710      H1712   1.085       .  S
C1713      H1715   1.086       .  S
C1713      C1714   1.341       .  D
C1714      H1716   1.084       .  S
C1717      H1719   1.087       .  S
C1717      C1718   1.337       .  D
C1721      H1723   1.086       .  S
C1721      C1722   1.347       .  D
C1722      H1724   1.086       .  S
C1725      H1727   1.087       .  S
C1725      C1726   1.341       .  D
C1726      H1728   1.084       .  S
C1729      H1731   1.085       .  S
C1729      C1730   1.344       .  D
C1730      H1732   1.086       .  S
C1733      H1735   1.086       .  S
C1733      C1734   1.348       .  D
C1734      H1736   1.086       .  S
C1737      H1739   1.084       .  S
C1737      C1738   1.342       .  D
C1738      H1740   1.087       .  S
C1741      H1743   1.084   1_554  S
C1741      C1742   1.346       .  D
C1742      H1744   1.087       .  S
C1745      H1747   1.085       .  S
C1745      C1746   1.345       .  D
C1746      H1748   1.086       .  S
C1749      H1751   1.087       .  S
C1749      C1750   1.343       .  D
C1750      H1752   1.083       .  S
C1753      H1755   1.086       .  S
C1753      C1754   1.344       .  D
C1754      H1756   1.086       .  S
C1757      H1759   1.087       .  S
C1757      C1758   1.342       .  D
C1758      H1760   1.082       .  S
C1761      H1763   1.083       .  S
C1761      C1762   1.344       .  D
C1762      H1764   1.087       .  S
C1765      H1767   1.087       .  S
C1765      C1766   1.342       .  D
C1766      H1768   1.084       .  S
C1769      H1771   1.087       .  S
C1769      C1770   1.345       .  D
C1770      H1772   1.083       .  S
C1773      H1775   1.082       .  S
C1773      C1774   1.349       .  D
C1777      H1779   1.087       .  S
C1777      C1778   1.343       .  D
C1778      H1780   1.082       .  S
C1781      H1783   1.086       .  S
C1781      C1782   1.344       .  D
C1782      H1784   1.087       .  S
C1785      H1787   1.087       .  S
C1785      C1786   1.346       .  D
C1786      H1788   1.083       .  S
C1789      H1791   1.086       .  S
C1789      C1790   1.346       .  D
C1790      H1792   1.087       .  S
C1793      H1795   1.086       .  S
C1793      C1794   1.343       .  D
C1794      H1796   1.080       .  S
C1797      H1799   1.088       .  S
C1797      C1798   1.344       .  D
C1798      H1800   1.083       .  S
C1801      H1803   1.084       .  S
C1801      C1802   1.341       .  D
C1802      H1804   1.087       .  S
C1805      H1807   1.084       .  S
C1805      C1806   1.340       .  D
C1806      H1808   1.087       .  S
C1809      H1811   1.087       .  S
C1809      C1810   1.344       .  D
C1810      H1812   1.086       .  S
C1813      H1815   1.086       .  S
C1813      C1814   1.343       .  D
C1814      H1816   1.085       .  S
C1817      H1819   1.084       .  S
C1817      C1818   1.344       .  D
C1818      H1820   1.086       .  S
C1821      H1823   1.082       .  S
C1821      C1822   1.341       .  D
C1822      H1824   1.087       .  S
C1825      H1827   1.086       .  S
C1825      C1826   1.344       .  D
C1826      H1828   1.086       .  S
C1829      H1831   1.084       .  S
C1829      C1830   1.348       .  D
C1830      H1832   1.085       .  S
C1833      H1835   1.084       .  S
C1833      C1834   1.344       .  D
C1834      H1836   1.087       .  S
C1837      H1839   1.088       .  S
C1837      C1838   1.342       .  D
C1838      H1840   1.082       .  S
C1841      H1843   1.085       .  S
C1841      C1842   1.349       .  D
C1842      H1844   1.085       .  S
C1845      H1847   1.087       .  S
C1845      C1846   1.340       .  D
C1846      H1848   1.085       .  S
C1849      H1851   1.086       .  S
C1849      C1850   1.343       .  D
C1850      H1852   1.086       .  S
C1853      H1855   1.088   1_556  S
C1853      C1854   1.342   1_556  D
C1854      H1856   1.083       .  S
C1857      H1859   1.085       .  S
C1857      C1858   1.346       .  D
C1858      H1860   1.086       .  S
C1861      H1863   1.086       .  S
C1861      C1862   1.348       .  D
C1862      H1864   1.085       .  S
C1865      H1867   1.083       .  S
C1865      C1866   1.345       .  D
C1866      H1868   1.087   1_565  S
C1869      H1871   1.086       .  S
C1869      C1870   1.350       .  D
C1870      H1872   1.086       .  S
C1873      H1875   1.086       .  S
C1873      C1874   1.345       .  D
C1874      H1876   1.083       .  S
C1877      H1879   1.087       .  S
C1877      C1878   1.347       .  D
C1878      H1880   1.081       .  S
C1881      H1883   1.083       .  S
C1881      C1882   1.344       .  D
C1882      H1884   1.087       .  S
C1885      H1887   1.084       .  S
C1885      C1886   1.344       .  D
C1886      H1888   1.088       .  S
C1889      H1891   1.085       .  S
C1889      C1890   1.344       .  D
C1890      H1892   1.085       .  S
C1893      H1895   1.087       .  S
C1893      C1894   1.342       .  D
C1894      H1896   1.084       .  S
C1897      H1899   1.084       .  S
C1897      C1898   1.342       .  D
C1898      H1900   1.086       .  S
C1901      H1903   1.087       .  S
C1901      C1902   1.347       .  D
C1902      H1904   1.087       .  S
C1905      H1907   1.085       .  S
C1905      C1906   1.346       .  D
C1906      H1908   1.086       .  S
C1909      H1911   1.087       .  S
C1909      C1910   1.344       .  D
C1910      H1912   1.081       .  S
C1913      H1915   1.081       .  S
C1913      C1914   1.344       .  D
C1914      H1916   1.086       .  S
C1917      H1919   1.083       .  S
C1917      C1918   1.343       .  D
C1918      H1920   1.087       .  S
C1921      H1923   1.087       .  S
C1921      C1922   1.339       .  D
C1922      H1924   1.087       .  S
C1925      H1927   1.086       .  S
C1925      C1926   1.348       .  D
C1926      H1928   1.085       .  S
C1929      H1931   1.086       .  S
C1929      C1930   1.343       .  D
C1930      H1932   1.085       .  S
C1933      H1935   1.087       .  S
C1933      C1934   1.345       .  D
C1934      H1936   1.081       .  S
C1937      H1939   1.087       .  S
C1937      C1938   1.349       .  D
C1938      H1940   1.086       .  S
C1941      H1943   1.086       .  S
C1941      C1942   1.340       .  D
C1942      H1944   1.086       .  S
C1945      H1947   1.087       .  S
C1945      C1946   1.345       .  D
C1946      H1948   1.081       .  S
C1949      H1951   1.082       .  S
C1949      C1950   1.347       .  D
C1950      H1952   1.087       .  S
