geometry optimzed in LAMMPS
_audit_creation_date              2020-11-30 
_audit_creation_method            'lammps2cif' 
_symmetry_space_group_name_H-M    'P1' 
_symmetry_Int_Tables_number       1 
_symmetry_cell_setting            triclinic 
loop_ 
_symmetry_equiv_pos_as_xyz 
  x,y,z 
_cell_length_a                    27.21430753 
_cell_length_b                    27.235547276311856 
_cell_length_c                    27.17648656396761 
_cell_angle_alpha                 89.97570488013412 
_cell_angle_beta                  90.00867289428469 
_cell_angle_gamma                 90.01854286450877 
loop_ 
_atom_site_label 
_atom_site_type_symbol 
_atom_site_fract_x 
_atom_site_fract_y 
_atom_site_fract_z 
_atom_site_charge 
Zn1        Zn  0.80244682  0.75959467  0.71744755     1.49700
Zn2        Zn  0.75556675  0.70791181  0.81435890     1.49400
Zn3        Zn  0.70426229  0.80666252  0.76732595     1.49100
Zn4        Zn  0.70039611  0.70631883  0.71372640     1.49500
O5          O  0.74150016  0.74595700  0.75433074    -1.78200
O6          O  0.86206107  0.74136796  0.75862500    -0.68900
O7          O  0.73782931  0.75012894  0.87337501    -0.68700
O8          O  0.74770407  0.86553923  0.75207164    -0.68200
O9          O  0.82947290  0.70905959  0.82656607    -0.68900
O10         O  0.81489935  0.83221229  0.71911707    -0.68500
O11         O  0.70354887  0.81727067  0.84081098    -0.69100
O12         O  0.63624414  0.73207631  0.70090144    -0.68500
O13         O  0.72329674  0.63671926  0.81157289    -0.69200
O14         O  0.63418957  0.80688952  0.73286105    -0.68600
O15         O  0.68849604  0.64154226  0.73789436    -0.69100
O16         O  0.72642010  0.69648482  0.64963596    -0.69000
O17         O  0.80053604  0.73025956  0.64600859    -0.68800
C18         C  0.86589578  0.72695339  0.80308860     0.83000
C19         C  0.72273072  0.79433352  0.87689046     0.83500
C20         C  0.79224435  0.86849040  0.73783883     0.82500
C21         C  0.61422467  0.77187679  0.70826462     0.82800
C22         C  0.69802724  0.61781873  0.77633500     0.84000
C23         C  0.76501150  0.70629913  0.62639050     0.83000
C24         C  0.88214540  0.98691911  0.76392678     0.03400
Zn25       Zn  0.80742783  0.20610280  0.71296875     1.49700
Zn26       Zn  0.80446778  0.30570942  0.76891971     1.49400
Zn27       Zn  0.70730837  0.26280481  0.71416527     1.49100
Zn28       Zn  0.74894333  0.20726677  0.81130025     1.49500
O29         O  0.76634814  0.24635372  0.75290382    -1.78200
O30         O  0.87013933  0.23334095  0.69739221    -0.68900
O31         O  0.76093549  0.36498038  0.75612164    -0.68700
O32         O  0.70824093  0.23117995  0.64419928    -0.68200
O33         O  0.87364256  0.30688073  0.73220837    -0.68900
O34         O  0.78012306  0.19320080  0.64990126    -0.68500
O35         O  0.69753882  0.33580987  0.71317550    -0.69100
O36         O  0.67488045  0.20876263  0.82067101    -0.68500
O37         O  0.80561440  0.31369195  0.84327736    -0.69200
O38         O  0.64663926  0.24818470  0.75458846    -0.68600
O39         O  0.76434742  0.24849286  0.87143482    -0.69100
O40         O  0.78056681  0.13594244  0.80941166    -0.69000
O41         O  0.82114546  0.14234693  0.73892467    -0.68800
C42         C  0.89240032  0.27291666  0.70523255     0.83000
C43         C  0.71843572  0.37005572  0.73712348     0.83500
C44         C  0.74221026  0.20417717  0.62605247     0.82500
C45         C  0.64056059  0.23080696  0.79764160     0.82800
C46         C  0.78250801  0.29122957  0.87742237     0.84000
C47         C  0.80878592  0.11788457  0.77607708     0.83000
C48         C  0.62570394  0.48599111  0.76385456     0.03400
C49         C  0.74888879  0.62959323  0.49967582     0.03400
Zn50       Zn  0.80146237  0.80586378  0.22828788     1.49700
Zn51       Zn  0.75118417  0.70798099  0.17968961     1.49400
Zn52       Zn  0.80744560  0.70392732  0.27989036     1.49100
Zn53       Zn  0.70508753  0.75644560  0.27851118     1.49500
O54         O  0.76562586  0.74431624  0.24053385    -1.78200
O55         O  0.80294601  0.81800691  0.15468480    -0.68900
O56         O  0.78105502  0.63573782  0.18135928    -0.68700
O57         O  0.87171562  0.73034635  0.29254563    -0.68200
O58         O  0.76863363  0.75135653  0.12117975    -0.68900
O59         O  0.87018758  0.80715120  0.26515124    -0.68500
O60         O  0.81783179  0.63934258  0.25418518    -0.69100
O61         O  0.70779522  0.72566085  0.34884720    -0.68500
O62         O  0.67768827  0.71079775  0.16829600    -0.69200
O63         O  0.78209213  0.69235755  0.34472442    -0.68600
O64         O  0.64525654  0.73818282  0.23838846    -0.69100
O65         O  0.69083735  0.82872935  0.27843646    -0.69000
O66         O  0.75634424  0.86330562  0.24351730    -0.68800
C67         C  0.78348342  0.79573041  0.11829069     0.83000
C68         C  0.80645982  0.61594304  0.21601772     0.83500
C69         C  0.89153487  0.77181892  0.28811752     0.82500
C70         C  0.74329212  0.70143983  0.36805827     0.82800
C71         C  0.64143260  0.72691861  0.19308608     0.84000
C72         C  0.71215621  0.86537910  0.25885782     0.83000
C73         C  0.75231489  0.88177821  0.99696136     0.03400
C74         C  0.51321544  0.75290187  0.11710334     0.03400
C75         C  0.36921808  0.99287929  0.73937424     0.03400
C76         C  0.75019206  0.37480548  0.99996906     0.03400
C77         C  0.24751980  0.61887021  0.99232393     0.03400
C78         C  0.12434595  0.50001562  0.74258563     0.03400
C79         C  0.75270461  0.12423875  0.50077582     0.03400
C80         C  0.01665394  0.76710187  0.37253562     0.03400
Zn81       Zn  0.20436238  0.76582130  0.20379758     1.49700
Zn82       Zn  0.30276358  0.70852140  0.20273538     1.49400
Zn83       Zn  0.30172283  0.80715797  0.26102814     1.49100
Zn84       Zn  0.24471005  0.71052751  0.30206765     1.49500
O85         O  0.26266591  0.74895600  0.24331040    -1.78200
O86         O  0.20326095  0.73053676  0.13455469    -0.68900
O87         O  0.36663388  0.73425277  0.18993105    -0.68700
O88         O  0.26006642  0.86701132  0.24645346    -0.68200
O89         O  0.27616426  0.69459794  0.13915058    -0.68900
O90         O  0.19657153  0.83952674  0.20224615    -0.68500
O91         O  0.37270567  0.80584232  0.22840095    -0.69100
O92         O  0.26005680  0.75035613  0.36323854    -0.68500
O93         O  0.31437372  0.64480632  0.22922865    -0.69200
O94         O  0.30024968  0.81607937  0.33531878    -0.68600
O95         O  0.27452753  0.63929917  0.30025949    -0.69100
O96         O  0.17122370  0.71292351  0.31101794    -0.69000
O97         O  0.14420230  0.75406668  0.24542805    -0.68800
C98         C  0.23718950  0.70347902  0.11612004     0.83000
C99         C  0.39081307  0.77193832  0.20093606     0.83500
C100        C  0.21784092  0.87303545  0.22712192     0.82500
C101        C  0.27769612  0.79323366  0.36951348     0.82800
C102        C  0.30186629  0.62077896  0.26659675     0.84000
C103        C  0.13789553  0.73677034  0.28844469     0.83000
C104        C  0.25191261  0.87384411  0.49542459     0.03400
C105        C  0.87549558  0.48358649  0.23448846     0.03400
Zn106      Zn  0.69383860  0.20211143  0.28420488     1.49700
Zn107      Zn  0.79531434  0.25742358  0.28281997     1.49400
Zn108      Zn  0.75211619  0.20425189  0.18531568     1.49100
Zn109      Zn  0.69806140  0.30229486  0.22987884     1.49500
O110        O  0.73552940  0.24235466  0.24461078    -1.78200
O111        O  0.72114462  0.18860848  0.34740604    -0.68900
O112        O  0.85548320  0.24295524  0.24147757    -0.68700
O113        O  0.72195319  0.13272609  0.18716649    -0.68200
O114        O  0.79431705  0.22435143  0.35222272    -0.68900
O115        O  0.68116697  0.13835387  0.25765379    -0.68500
O116        O  0.82572174  0.20641258  0.17447287    -0.69100
O117        O  0.69626002  0.31129034  0.15579469    -0.68500
O118        O  0.80601202  0.33053343  0.28494187    -0.69200
O119        O  0.73521645  0.24558073  0.12571010    -0.68600
O120        O  0.74236064  0.36085641  0.24321603    -0.69100
O121        O  0.62909226  0.30392328  0.26682949    -0.69000
O122        O  0.63052724  0.22934769  0.29959739    -0.68800
C123        C  0.75977641  0.19824190  0.37073476     0.83000
C124        C  0.86064272  0.22717613  0.19769998     0.83500
C125        C  0.69408785  0.11419621  0.22049005     0.82500
C126        C  0.71791144  0.28879789  0.12078533     0.82800
C127        C  0.78504189  0.36540994  0.26192266     0.84000
C128        C  0.60923688  0.26970567  0.29270134     0.83000
C129        C  0.62149616  0.98351434  0.23332040     0.03400
C130        C  0.51180021  0.25451741  0.87374326     0.03400
Zn131      Zn  0.20459803  0.27196124  0.79105415     1.49700
Zn132      Zn  0.30327310  0.21430108  0.78907700     1.49400
Zn133      Zn  0.24465940  0.21613197  0.69200326     1.49100
Zn134      Zn  0.29968611  0.31474372  0.73254187     1.49500
O135        O  0.26225510  0.25543897  0.75027156    -1.78200
O136        O  0.20614254  0.23687546  0.86038760    -0.68900
O137        O  0.31414834  0.15006645  0.76346487    -0.68700
O138        O  0.17176364  0.21961057  0.68415667    -0.68200
O139        O  0.27874209  0.20065706  0.85339117    -0.68900
O140        O  0.14389866  0.25739778  0.75146107    -0.68500
O141        O  0.27230991  0.14391131  0.69388263    -0.69100
O142        O  0.29621692  0.32271763  0.65821584    -0.68500
O143        O  0.36701431  0.23978173  0.79967063    -0.69200
O144        O  0.25999118  0.25468087  0.63019354    -0.68600
O145        O  0.37169981  0.31293932  0.76391660    -0.69100
O146        O  0.25745610  0.37507125  0.74800932    -0.69000
O147        O  0.19430643  0.34597956  0.79147317    -0.68800
C148        C  0.24051291  0.20954817  0.87759369     0.83000
C149        C  0.30019381  0.12542795  0.72709545     0.83500
C150        C  0.13794825  0.24134822  0.70792303     0.82500
C151        C  0.27525419  0.29847286  0.62396954     0.82800
C152        C  0.39065171  0.27799567  0.78960722     0.84000
C153        C  0.21515855  0.38050454  0.76755752     0.83000
C154        C  0.01822629  0.26732698  0.62187701     0.03400
C155        C  0.98832845  0.25329635  0.12063553     0.03400
Zn156      Zn  0.06280460  0.95537419  0.02281264     1.49700
Zn157      Zn  0.96484133  0.00976997  0.06541415     1.49400
Zn158      Zn  0.01924259  0.05277786  0.96921511     1.49100
Zn159      Zn  0.96898035  0.95730214  0.96926290     1.49500
O160        O  0.00702575  0.99670401  0.01045904    -1.78200
O161        O  0.07101197  0.95375650  0.09725846    -0.68900
O162        O  0.96270705  0.08398553  0.07465160    -0.68700
O163        O  0.09270700  0.06103552  0.96440003    -0.68200
O164        O  0.00369946  0.99083104  0.12674139    -0.68900
O165        O  0.12304562  0.99567881  0.00406062    -0.68500
O166        O  0.00197305  0.11342408  0.00875747    -0.69100
O167        O  0.99068499  0.96312647  0.90133226    -0.68500
O168        O  0.89679924  0.97417922  0.05262731    -0.69200
O169        O  0.98051871  0.04346843  0.90321826    -0.68600
O170        O  0.89974726  0.97519749  0.97110928    -0.69100
O171        O  0.97201527  0.88782241  0.98585833    -0.69000
O172        O  0.05321243  0.88752679  0.98492601    -0.68800
C173        C  0.04681945  0.97316015  0.13256897     0.83000
C174        C  0.98282208  0.11927886  0.05115584     0.83500
C175        C  0.12824711  0.03799367  0.98446266     0.82500
C176        C  0.97490149  0.00194784  0.88173036     0.82800
C177        C  0.87695138  0.96595414  0.01044923     0.84000
C178        C  0.01185763  0.86666957  0.97546862     0.83000
Zn179      Zn  0.19366438  0.21065024  0.21370875     1.49700
Zn180      Zn  0.25094822  0.21397856  0.31296205     1.49400
Zn181      Zn  0.29460594  0.26409475  0.21412222     1.49100
Zn182      Zn  0.19770346  0.31140320  0.26701938     1.49500
O183        O  0.23485275  0.25111711  0.25300234    -1.78200
O184        O  0.18182446  0.14743522  0.24045969    -0.68900
O185        O  0.32406091  0.21972073  0.32455376    -0.68700
O186        O  0.29425167  0.22849291  0.14586323    -0.68200
O187        O  0.22478626  0.14107842  0.30955251    -0.68900
O188        O  0.22008267  0.19514076  0.15035382    -0.68500
O189        O  0.35484182  0.24967356  0.25481313    -0.69100
O190        O  0.24213623  0.36927555  0.25137444    -0.68500
O191        O  0.23093807  0.25349677  0.37291624    -0.69200
O192        O  0.30605730  0.33704436  0.21130270    -0.68600
O193        O  0.19798920  0.32164250  0.34111385    -0.69100
O194        O  0.12746606  0.31158715  0.23202570    -0.69000
O195        O  0.13061329  0.23687952  0.19975817    -0.68800
C196        C  0.19675474  0.12265086  0.27635242     0.83000
C197        C  0.35944390  0.23771728  0.29981379     0.83500
C198        C  0.25954404  0.20247422  0.12758215     0.82500
C199        C  0.28525967  0.37265831  0.23335973     0.82800
C200        C  0.21644316  0.29782436  0.37709351     0.84000
C201        C  0.10819737  0.27643568  0.20696704     0.83000
C202        C  0.12876369  0.99082793  0.25905127     0.03400
Zn203      Zn  0.97138257  0.04831565  0.55322936     1.49700
Zn204      Zn  0.02570115  0.94875077  0.54852563     1.49400
Zn205      Zn  0.96793121  0.99129945  0.45348890     1.49100
Zn206      Zn  0.06714034  0.04596623  0.49080180     1.49500
O207        O  0.00922350  0.00783780  0.51075772    -1.78200
O208        O  0.95866362  0.02214162  0.61705556    -0.68900
O209        O  0.01272203  0.89000227  0.50493665    -0.68700
O210        O  0.89864416  0.02309902  0.45701031    -0.68200
O211        O  0.98986044  0.94694202  0.61779266    -0.68900
O212        O  0.90705427  0.06092157  0.52878562    -0.68500
O213        O  0.96602101  0.91839673  0.44391266    -0.69100
O214        O  0.07436860  0.03978880  0.41668620    -0.68500
O215        O  0.09959131  0.94085696  0.54908989    -0.69200
O216        O  0.00504044  0.00461420  0.39084804    -0.68600
O217        O  0.12771838  0.00554090  0.50687827    -0.69100
O218        O  0.06511099  0.11891567  0.51918231    -0.69000
O219        O  0.99734980  0.11209506  0.56403563    -0.68800
C220        C  0.96510970  0.98163018  0.63807472     0.83000
C221        C  0.99180790  0.88469044  0.46340337     0.83500
C222        C  0.88183226  0.04998997  0.49172779     0.82500
C223        C  0.04901992  0.01854518  0.38347706     0.82800
C224        C  0.13351824  0.96286922  0.52535100     0.84000
C225        C  0.03292719  0.13704130  0.54871217     0.83000
C226        C  0.25201365  0.12317438  0.00012136     0.03400
Zn227      Zn  0.48744268  0.05351397  0.02635635     1.49700
Zn228      Zn  0.44137532  0.95627390  0.97460685     1.49400
Zn229      Zn  0.53813982  0.00997458  0.92815751     1.49100
Zn230      Zn  0.53676041  0.95733712  0.02398130     1.49500
O231        O  0.49777218  0.99750644  0.98460151    -1.78200
O232        O  0.41412130  0.06330423  0.03123948    -0.68900
O233        O  0.43060630  0.95338638  0.90058768    -0.68700
O234        O  0.53946472  0.08438968  0.91837397    -0.68200
O235        O  0.38195410  0.99733362  0.99420122    -0.68900
O236        O  0.50515557  0.11444145  0.98672689    -0.68500
O237        O  0.49675592  0.99048881  0.86850995    -0.69100
O238        O  0.60568245  0.97560796  0.02081202    -0.68500
O239        O  0.45210392  0.88900337  0.01319622    -0.69200
O240        O  0.60680650  0.97403737  0.93930382    -0.68600
O241        O  0.53290670  0.88814352  0.00597182    -0.69100
O242        O  0.51719211  0.96146520  0.09264118    -0.69000
O243        O  0.52552304  0.04218411  0.09288689    -0.68800
C244        C  0.37782311  0.04031810  0.01251588     0.83000
C245        C  0.45349165  0.97263886  0.86432355     0.83500
C246        C  0.52143429  0.12002497  0.94303610     0.82500
C247        C  0.62759134  0.96594743  0.98112018     0.82800
C248        C  0.49375192  0.86768732  0.01992401     0.84000
C249        C  0.53132239  0.00020901  0.11362147     0.83000
Zn250      Zn  0.53819998  0.98926845  0.54997588     1.49700
Zn251      Zn  0.48453299  0.94565426  0.45225237     1.49400
Zn252      Zn  0.44049057  0.04256380  0.50762281     1.49100
Zn253      Zn  0.53948144  0.04509085  0.44920946     1.49500
O254        O  0.49968156  0.00489219  0.49053574    -1.78200
O255        O  0.53959080  0.91649675  0.55922250    -0.68900
O256        O  0.41099469  0.93557741  0.45219359    -0.68700
O257        O  0.43008109  0.03870330  0.58145401    -0.68200
O258        O  0.49943175  0.88651030  0.49428997    -0.68900
O259        O  0.49744729  0.00271511  0.61098774    -0.68500
O260        O  0.38043661  0.00146908  0.49029628    -0.69100
O261        O  0.51513102  0.11034957  0.43992298    -0.68500
O262        O  0.51844816  0.94551860  0.38241103    -0.69200
O263        O  0.44314532  0.11471206  0.47812580    -0.68600
O264        O  0.55110401  0.02011398  0.38415974    -0.69100
O265        O  0.60394416  0.05459771  0.47455407    -0.69000
O266        O  0.60820222  0.02071894  0.54871705    -0.68800
C267        C  0.51714940  0.88187953  0.53736653     0.83000
C268        C  0.37576351  0.95805194  0.47329811     0.83500
C269        C  0.45342097  0.01767162  0.61621574     0.82500
C270        C  0.47747342  0.13410486  0.45204085     0.82800
C271        C  0.54320624  0.98025023  0.36227866     0.84000
C272        C  0.62727586  0.04513012  0.51323339     0.83000
C273        C  0.48500907  0.26525195  0.37873273     0.01800
Zn274      Zn  0.96392053  0.45311638  0.02888619     1.49700
Zn275      Zn  0.96006353  0.50940214  0.93628021     1.49400
Zn276      Zn  0.01725830  0.54731174  0.03357913     1.49100
Zn277      Zn  0.05751152  0.45233353  0.97480466     1.49500
O278        O  0.00280982  0.49398965  0.99004673    -1.78200
O279        O  0.89504050  0.47204676  0.02791153    -0.68900
O280        O  0.95712490  0.58375512  0.93151310    -0.68700
O281        O  0.97941136  0.53549729  0.09958710    -0.68200
O282        O  0.89288251  0.47147486  0.94657319    -0.68900
O283        O  0.98455983  0.45453647  0.09748842    -0.68500
O284        O  0.99977092  0.60945142  0.99701064    -0.69100
O285        O  0.11873885  0.49121641  0.99208123    -0.68500
O286        O  0.99911131  0.49459267  0.87417230    -0.69200
O287        O  0.09117647  0.55477918  0.03627669    -0.68600
O288        O  0.06422650  0.45170776  0.90041385    -0.69100
O289        O  0.04774127  0.38485398  0.01210748    -0.69000
O290        O  0.96684164  0.38524082  0.00660859    -0.68800
C291        C  0.87293540  0.46208295  0.98841571     0.83000
C292        C  0.97918146  0.61742821  0.95564371     0.83500
C293        C  0.97139830  0.49334106  0.11904901     0.82500
C294        C  0.12537120  0.53255333  0.01312796     0.82800
C295        C  0.04106911  0.47494260  0.86678650     0.84000
C296        C  0.00595294  0.36424385  0.01969640     0.83000
Zn297      Zn  0.53659096  0.45536712  0.96982878     1.49700
Zn298      Zn  0.53976232  0.50895169  0.06516241     1.49400
Zn299      Zn  0.48577904  0.55105788  0.96761574     1.49100
Zn300      Zn  0.44142112  0.45487792  0.02214154     1.49500
O301        O  0.49781532  0.49561892  0.00984929    -1.78200
O302        O  0.60599226  0.47228330  0.97276738    -0.68900
O303        O  0.54226448  0.58356370  0.07306893    -0.68700
O304        O  0.52563482  0.54109810  0.90235566    -0.68200
O305        O  0.60736613  0.47164857  0.05422129    -0.68900
O306        O  0.51708855  0.46050012  0.90115386    -0.68500
O307        O  0.50343223  0.61179328  0.00631300    -0.69100
O308        O  0.38125933  0.49649454  0.00375135    -0.68500
O309        O  0.50031780  0.49049178  0.12627485    -0.69200
O310        O  0.41197969  0.56038346  0.96217316    -0.68600
O311        O  0.43374115  0.45188135  0.09700706    -0.69100
O312        O  0.45100155  0.38780090  0.98243043    -0.69000
O313        O  0.53195946  0.38630901  0.98767120    -0.68800
C314        C  0.62771594  0.46240835  0.01251873     0.83000
C315        C  0.52237819  0.61842875  0.04865786     0.83500
C316        C  0.53250910  0.49945453  0.88147879     0.82500
C317        C  0.37615147  0.53828564  0.98290073     0.82800
C318        C  0.45770701  0.47168913  0.13234012     0.84000
C319        C  0.49238537  0.36642960  0.97418588     0.83000
Zn320      Zn  0.96077378  0.55019075  0.44860063     1.49700
Zn321      Zn  0.96127825  0.49156607  0.54801167     1.49400
Zn322      Zn  0.01893712  0.45302674  0.45042950     1.49100
Zn323      Zn  0.05763415  0.54969911  0.51004965     1.49500
O324        O  0.00054725  0.51042285  0.49012977    -1.78200
O325        O  0.89712178  0.56123855  0.47490593    -0.68900
O326        O  0.96342334  0.41836810  0.55581456    -0.68700
O327        O  0.98293249  0.45089828  0.38163106    -0.68200
O328        O  0.89023723  0.52069730  0.54544961    -0.68900
O329        O  0.94672914  0.52369463  0.38473284    -0.68500
O330        O  0.00847039  0.39289278  0.49222190    -0.69100
O331        O  0.11807617  0.50912955  0.49601344    -0.68500
O332        O  0.99953114  0.50618756  0.61039145    -0.69200
O333        O  0.09290188  0.44732336  0.44824416    -0.68600
O334        O  0.06504201  0.54787404  0.58436478    -0.69100
O335        O  0.05635698  0.62047347  0.47826919    -0.69000
O336        O  0.98642500  0.61422024  0.43663166    -0.68800
C337        C  0.87246639  0.54837076  0.51172425     0.83000
C338        C  0.98918841  0.38589449  0.53426019     0.83500
C339        C  0.95560839  0.48424976  0.36255256     0.82500
C340        C  0.12547554  0.46815852  0.47474285     0.82800
C341        C  0.04194691  0.52450994  0.61779239     0.84000
C342        C  0.02346828  0.63848468  0.44956365     0.83000
C343        C  0.24568102  0.38100069  0.50056768     0.03400
Zn344      Zn  0.53092963  0.54885466  0.55663119     1.49700
Zn345      Zn  0.43514436  0.54752175  0.49413595     1.49400
Zn346      Zn  0.53389472  0.49269062  0.45620853     1.49100
Zn347      Zn  0.47633965  0.44942777  0.55145606     1.49500
O348        O  0.49290691  0.50875493  0.51376787    -1.78200
O349        O  0.50248899  0.61044822  0.57275278    -0.68900
O350        O  0.42738521  0.54280554  0.41946683    -0.68700
O351        O  0.60261756  0.52680111  0.45930171    -0.68200
O352        O  0.43715516  0.61957705  0.52473767    -0.68900
O353        O  0.59336892  0.56636906  0.53004839    -0.68500
O354        O  0.49593810  0.50608704  0.39389109    -0.69100
O355        O  0.49020956  0.39076282  0.50830392    -0.68500
O356        O  0.37458500  0.50737537  0.51009727    -0.69200
O357        O  0.53615816  0.41923186  0.44669841    -0.68600
O358        O  0.40225680  0.44159832  0.55092720    -0.69100
O359        O  0.51249853  0.44667828  0.62076367    -0.69000
O360        O  0.54801844  0.51983031  0.61802120    -0.68800
C361        C  0.46771857  0.63614859  0.55682949     0.83000
C362        C  0.45242140  0.52122864  0.38617035     0.83500
C363        C  0.61860397  0.55563262  0.49293471     0.82500
C364        C  0.51114962  0.38519412  0.46684722     0.82800
C365        C  0.36839941  0.46449415  0.52788750     0.84000
C366        C  0.54016655  0.47994112  0.63968056     0.83000
C367        C  0.37579388  0.49095209  0.25903867     0.03400
C368        C  0.99398559  0.74842843  0.88203236     0.03400
Zn369      Zn  0.27285142  0.79626128  0.71194782     1.49700
Zn370      Zn  0.27886123  0.69806158  0.75823344     1.49400
Zn371      Zn  0.22412726  0.79070357  0.80737687     1.49100
Zn372      Zn  0.17939379  0.74028963  0.70781810     1.49500
O373        O  0.23527819  0.75259078  0.74894973    -1.78200
O374        O  0.34212051  0.79385941  0.73012452    -0.68900
O375        O  0.28343640  0.68449082  0.83113269    -0.68700
O376        O  0.26474918  0.85680710  0.80032840    -0.68200
O377        O  0.34502071  0.71299856  0.72206008    -0.68900
O378        O  0.25060727  0.86356676  0.72084427    -0.68500
O379        O  0.24214322  0.74663364  0.86524790    -0.69100
O380        O  0.11915788  0.75752749  0.74978058    -0.68500
O381        O  0.24221584  0.63679728  0.73767552    -0.69200
O382        O  0.15019500  0.79427254  0.81674624    -0.68600
O383        O  0.17210798  0.66583520  0.70600343    -0.69100
O384        O  0.18978477  0.77698906  0.63876027    -0.69000
O385        O  0.27095901  0.78262691  0.64207079    -0.68800
C386        C  0.36450900  0.75557455  0.71675325     0.83000
C387        C  0.26251264  0.70450960  0.86795956     0.83500
C388        C  0.26962507  0.88030106  0.75962040     0.82500
C389        C  0.11446716  0.77469267  0.79336365     0.82800
C390        C  0.19825619  0.63057917  0.72264221     0.84000
C391        C  0.23129540  0.78835736  0.61891637     0.83000
C392        C  0.48576453  0.76680250  0.62903472     0.03400
C393        C  0.40925811  0.76249471  0.68963181    -0.07400
C394        C  0.44327849  0.77005725  0.66204862    -0.08900
C395        C  0.06920423  0.76570529  0.82006266    -0.07400
C396        C  0.03531308  0.75455424  0.84702699    -0.08900
C397        C  0.46705939  0.68515676  0.57665505    -0.07400
C398        C  0.47803092  0.72163751  0.59990778    -0.08900
C399        C  0.40599761  0.49440819  0.30418225    -0.07400
C400        C  0.42870473  0.50788710  0.34029370    -0.08900
C401        C  0.28977484  0.41243186  0.50284125    -0.07400
C402        C  0.32401341  0.43811264  0.51546903    -0.08900
C403        C  0.16942073  0.44102277  0.48678478    -0.07400
C404        C  0.20284131  0.41406590  0.49875299    -0.08900
C405        C  0.43312971  0.47851146  0.17922660    -0.07400
C406        C  0.40851932  0.48768759  0.21549728    -0.08900
C407        C  0.99465777  0.70194567  0.90976285    -0.07400
C408        C  0.98629264  0.66457260  0.93254888    -0.08900
C409        C  0.48914084  0.30793008  0.41179936    -0.07400
C410        C  0.50072044  0.34145014  0.43878600    -0.08900
C411        C  0.50483442  0.83901484  0.56563273    -0.07400
C412        C  0.49150695  0.80751153  0.59406339    -0.08900
C413        C  0.48355029  0.22071306  0.40969438    -0.07400
C414        C  0.47606695  0.18346704  0.43306434    -0.08900
C415        C  0.33213236  0.06656239  0.00651566    -0.07400
C416        C  0.29654719  0.09235122  0.99912523    -0.08900
C417        C  0.09719668  0.99110166  0.30311186    -0.07400
C418        C  0.07306774  0.00415637  0.33831545    -0.08900
C419        C  0.34235907  0.44841354  0.25585558    -0.07400
C420        C  0.31438020  0.41567160  0.24421107    -0.08900
C421        C  0.22782932  0.32425147  0.42193440    -0.07400
C422        C  0.24088310  0.34935354  0.45656661    -0.08900
C423        C  0.40426533  0.25034914  0.32520692    -0.07400
C424        C  0.43978046  0.26280935  0.34908767    -0.08900
C425        C  0.18034219  0.07264632  0.27570331    -0.07400
C426        C  0.15888109  0.03534031  0.26451216    -0.08900
C427        C  0.26267832  0.17842176  0.08079772    -0.07400
C428        C  0.25576086  0.15319841  0.04484874    -0.08900
C429        C  0.99821373  0.78901349  0.91817820    -0.07400
C430        C  0.00774458  0.82192103  0.94692145    -0.08900
C431        C  0.20911837  0.09013160  0.99871848    -0.07400
C432        C  0.17414210  0.06375617  0.99065763    -0.08900
C433        C  0.09667588  0.98978197  0.21507548    -0.07400
C434        C  0.07170317  0.98079474  0.17906825    -0.08900
C435        C  0.99080717  0.29055066  0.08121933    -0.07400
C436        C  0.00039999  0.32126244  0.05026817    -0.08900
C437        C  0.06093081  0.27831549  0.18321339    -0.07400
C438        C  0.02737156  0.26608573  0.15635518    -0.08900
C439        C  0.99378083  0.20486038  0.09694038    -0.07400
C440        C  0.98824041  0.16629246  0.07527050    -0.08900
C441        C  0.00234935  0.34258554  0.56148595    -0.07400
C442        C  0.01486291  0.30976473  0.58875100    -0.08900
C443        C  0.03344411  0.18654541  0.56727688    -0.07400
C444        C  0.02332913  0.22306498  0.59084279    -0.08900
C445        C  0.09404079  0.25422834  0.68170251    -0.07400
C446        C  0.06085302  0.26633929  0.65477112    -0.08900
C447        C  0.26242429  0.32390422  0.57897144    -0.07400
C448        C  0.24932351  0.34895801  0.54433332    -0.08900
C449        C  0.23830579  0.18485838  0.92428909    -0.07400
C450        C  0.24652843  0.15728916  0.95834111    -0.08900
C451        C  0.49725498  0.32334251  0.94330532    -0.07400
C452        C  0.50759861  0.29220386  0.91285637    -0.08900
C453        C  0.50786869  0.20576861  0.89757974    -0.07400
C454        C  0.51476414  0.16714225  0.91898595    -0.08900
C455        C  0.43901986  0.27863141  0.81107116    -0.07400
C456        C  0.47283238  0.26607850  0.83749210    -0.08900
C457        C  0.56583039  0.97643964  0.31456050    -0.07400
C458        C  0.59077001  0.98206539  0.27801914    -0.08900
C459        C  0.58788170  0.98422481  0.19098409    -0.07400
C460        C  0.55989806  0.99390061  0.15771101    -0.08900
C461        C  0.67495051  0.06503088  0.21906336    -0.07400
C462        C  0.65199637  0.02794262  0.22803859    -0.08900
C463        C  0.56256195  0.27434103  0.31764064    -0.07400
C464        C  0.52734807  0.26826176  0.34454262    -0.08900
C465        C  0.90546073  0.23854723  0.17142292    -0.07400
C466        C  0.94126916  0.25034106  0.14750940    -0.08900
C467        C  0.90562781  0.48398479  0.27959823    -0.07400
C468        C  0.93142150  0.47939391  0.31570118    -0.08900
C469        C  0.94064638  0.48762267  0.16162555    -0.07400
C470        C  0.91037688  0.48056151  0.19344251    -0.08900
C471        C  0.84131153  0.44176396  0.23944004    -0.07400
C472        C  0.81347639  0.40892242  0.25112392    -0.08900
C473        C  0.24690625  0.83969832  0.53763720    -0.07400
C474        C  0.23585733  0.81330187  0.57207007    -0.08900
C475        C  0.20983360  0.90787348  0.49954312    -0.07400
C476        C  0.17715096  0.93529046  0.51268156    -0.08900
C477        C  0.29677676  0.90449303  0.49459744    -0.07400
C478        C  0.33132279  0.93075209  0.48389524    -0.08900
C479        C  0.25443247  0.84402311  0.44996618    -0.07400
C480        C  0.26625561  0.81929461  0.41460342    -0.08900
C481        C  0.34480654  0.53506227  0.26044036    -0.07400
C482        C  0.32126403  0.57190834  0.26816286    -0.08900
C483        C  0.18990670  0.91627770  0.24003040    -0.07400
C484        C  0.16252255  0.94875598  0.25365817    -0.08900
C485        C  0.09420930  0.75034080  0.31517173    -0.07400
C486        C  0.06047980  0.76367669  0.34103563    -0.08900
C487        C  0.01843402  0.72311609  0.40397176    -0.07400
C488        C  0.02571952  0.68686654  0.42875110    -0.08900
C489        C  0.01422888  0.80964620  0.40576125    -0.07400
C490        C  0.00305206  0.84200933  0.43421417    -0.08900
C491        C  0.75422438  0.15374012  0.45577462    -0.07400
C492        C  0.76180139  0.17719848  0.41886063    -0.08900
C493        C  0.83369673  0.07059371  0.49145061    -0.07400
C494        C  0.79719198  0.09431976  0.49943979    -0.08900
C495        C  0.71085683  0.09077417  0.50530989    -0.07400
C496        C  0.67551245  0.06563583  0.51453067    -0.08900
C497        C  0.17523270  0.58339559  0.73059180    -0.07400
C498        C  0.15300704  0.54603840  0.74061180    -0.08900
C499        C  0.18700381  0.42471697  0.75692396    -0.07400
C500        C  0.15932135  0.45818642  0.74584760    -0.08900
C501        C  0.09291531  0.50148681  0.69815471    -0.07400
C502        C  0.06751108  0.51293622  0.66313732    -0.08900
C503        C  0.06623272  0.48470076  0.82091741    -0.07400
C504        C  0.09171948  0.49561406  0.78587627    -0.08900
C505        C  0.24925431  0.64914919  0.94729143    -0.07400
C506        C  0.25683157  0.67588186  0.91237576    -0.08900
C507        C  0.20545478  0.58481769  0.99504714    -0.07400
C508        C  0.17096242  0.55833986  0.00486644    -0.08900
C509        C  0.29318392  0.58918485  0.99313424    -0.07400
C510        C  0.32972573  0.56410963  0.98734376    -0.08900
C511        C  0.23390256  0.67952804  0.06907970    -0.07400
C512        C  0.24190800  0.65278678  0.03430198    -0.08900
C513        C  0.74343430  0.34225150  0.04304707    -0.07400
C514        C  0.72975988  0.31605807  0.07660996    -0.08900
C515        C  0.79375425  0.40696437  0.00115175    -0.07400
C516        C  0.82799442  0.43437529  0.99314550    -0.08900
C517        C  0.70702967  0.40755869  0.99972482    -0.07400
C518        C  0.67288775  0.43499689  0.00809892    -0.08900
C519        C  0.33377953  0.95190898  0.74336111    -0.07400
C520        C  0.30324632  0.92103567  0.75383798    -0.08900
C521        C  0.31813934  0.07588203  0.72648708    -0.07400
C522        C  0.34026496  0.03836622  0.73557499    -0.08900
C523        C  0.40127104  0.98960591  0.78330843    -0.07400
C524        C  0.42692810  0.98005092  0.81868339    -0.08900
C525        C  0.40106450  0.99335311  0.69529949    -0.07400
C526        C  0.42688422  0.00506247  0.66069474    -0.08900
C527        C  0.43901614  0.77341248  0.17917046    -0.07400
C528        C  0.47357370  0.76279312  0.15296941    -0.08900
C529        C  0.50970950  0.70478551  0.09237783    -0.07400
C530        C  0.51651701  0.66594171  0.07161551    -0.08900
C531        C  0.49930098  0.82376784  0.04950276    -0.07400
C532        C  0.50940524  0.79164863  0.07899303    -0.08900
C533        C  0.70861376  0.91395824  0.99561029    -0.07400
C534        C  0.67373365  0.94013722  0.98602371    -0.08900
C535        C  0.79583873  0.91406397  0.99665619    -0.07400
C536        C  0.83079888  0.94040974  0.00513866    -0.08900
C537        C  0.77146016  0.82408873  0.07474067    -0.07400
C538        C  0.75800904  0.85040918  0.04112645    -0.08900
C539        C  0.65487274  0.94100433  0.23664541    -0.07400
C540        C  0.68289259  0.90825935  0.24803963    -0.08900
C541        C  0.93800855  0.77657522  0.31319250    -0.07400
C542        C  0.97331957  0.77045484  0.33984179    -0.08900
C543        C  0.82466480  0.56621397  0.21515585    -0.07400
C544        C  0.84636815  0.52866627  0.22576154    -0.08900
C545        C  0.56024832  0.75068172  0.14410060    -0.07400
C546        C  0.59634977  0.73856795  0.16739405    -0.08900
C547        C  0.66614919  0.57795490  0.49176348    -0.07400
C548        C  0.70299448  0.60155246  0.49906895    -0.08900
C549        C  0.78917400  0.59420461  0.50372450    -0.07400
C550        C  0.82401428  0.56834203  0.51279052    -0.08900
C551        C  0.74836068  0.65872051  0.45432461    -0.07400
C552        C  0.74169746  0.68150558  0.41677063    -0.08900
C553        C  0.59307186  0.48542834  0.80684348    -0.07400
C554        C  0.56380156  0.49389950  0.83924805    -0.08900
C555        C  0.59335550  0.48218482  0.72030220    -0.07400
C556        C  0.56598860  0.47508443  0.68570385    -0.08900
C557        C  0.66099524  0.44509387  0.76025136    -0.07400
C558        C  0.68982365  0.41313632  0.74868446    -0.08900
C559        C  0.77030719  0.31796244  0.92185884    -0.07400
C560        C  0.75664099  0.34344643  0.95595758    -0.08900
C561        C  0.55914316  0.25290307  0.84715190    -0.07400
C562        C  0.59532297  0.24170872  0.82348510    -0.08900
C563        C  0.97420065  0.26961473  0.65367247    -0.07400
C564        C  0.93899613  0.27667170  0.68025019    -0.08900
C565        C  0.74881859  0.15796012  0.54251852    -0.07400
C566        C  0.74028662  0.18319811  0.57797476    -0.08900
C567        C  0.91386850  0.98417069  0.71993831    -0.07400
C568        C  0.94042656  0.97737767  0.68472324    -0.08900
C569        C  0.94429971  0.99614803  0.83904639    -0.07400
C570        C  0.91529382  0.98717290  0.80653154    -0.08900
C571        C  0.85226215  0.03198539  0.76856147    -0.07400
C572        C  0.82898656  0.06899442  0.77740345    -0.08900
C573        C  0.67743288  0.56903131  0.77718843    -0.07400
C574        C  0.65440418  0.53188663  0.76816508    -0.08900
C575        C  0.75525339  0.66320452  0.54142752    -0.07400
C576        C  0.76573467  0.68719048  0.57736406    -0.08900
C577        C  0.56648231  0.77482425  0.68541651    -0.07400
C578        C  0.53015482  0.76792166  0.66036692    -0.08900
C579        C  0.82038523  0.91201580  0.74899462    -0.07400
C580        C  0.84817237  0.94489985  0.76053244    -0.08900
C581        C  0.73419960  0.82199161  0.92081741    -0.07400
C582        C  0.74707050  0.84882795  0.95411015    -0.08900
C583        C  0.91125816  0.73652808  0.82950222    -0.07400
C584        C  0.94758883  0.74696968  0.85351921    -0.08900
loop_ 
_geom_bond_atom_site_label_1 
_geom_bond_atom_site_label_2 
_geom_bond_distance 
_geom_bond_site_symmetry_2 
_ccdc_geom_bond_type 
Zn1           O5   1.973       .  S
Zn1           O6   2.032       .  S
Zn1          O10   2.007       .  S
Zn1          O17   2.100       .  S
Zn2           O5   1.970       .  S
Zn2           O7   2.032       .  S
Zn2           O9   2.039       .  S
Zn2          O13   2.130       .  S
Zn3           O5   1.972       .  S
Zn3           O8   2.035       .  S
Zn3          O11   2.018       .  S
Zn3          O14   2.124       .  S
Zn4           O5   1.906       .  S
Zn4          O12   1.914       .  S
Zn4          O15   1.910       .  S
Zn4          O16   1.899       .  S
O6           C18   1.275       .  A
O7           C19   1.276       .  A
O8           C20   1.275       .  A
O9           C18   1.275       .  A
O10          C20   1.271       .  A
O11          C19   1.274       .  A
O12          C21   1.255       .  A
O13          C22   1.286       .  A
O14          C21   1.285       .  A
O15          C22   1.255       .  A
O16          C23   1.254       .  A
O17          C23   1.282       .  A
C18         C583   1.452       .  S
C19         C581   1.446       .  S
C20         C579   1.443       .  S
C21         C577   1.442       .  S
C22         C573   1.442       .  S
C23         C576   1.431       .  S
C24         C567   1.477       .  S
C24         C570   1.468       .  S
C24         C571   1.478   1_565  S
C24         C580   1.474       .  S
Zn25         O29   1.906       .  S
Zn25         O30   1.908       .  S
Zn25         O34   1.901       .  S
Zn25         O41   1.911       .  S
Zn26         O29   1.969       .  S
Zn26         O31   2.032       .  S
Zn26         O33   2.131       .  S
Zn26         O37   2.033       .  S
Zn27         O29   1.972       .  S
Zn27         O32   2.088       .  S
Zn27         O35   2.006       .  S
Zn27         O38   2.023       .  S
Zn28         O29   1.968       .  S
Zn28         O36   2.032       .  S
Zn28         O39   2.027       .  S
Zn28         O40   2.126       .  S
O30          C42   1.255       .  A
O31          C43   1.274       .  A
O32          C44   1.280       .  A
O33          C42   1.286       .  A
O34          C44   1.255       .  A
O35          C43   1.272       .  A
O36          C45   1.275       .  A
O37          C46   1.277       .  A
O38          C45   1.273       .  A
O39          C46   1.275       .  A
O40          C47   1.286       .  A
O41          C47   1.255       .  A
C42         C564   1.442       .  S
C43         C558   1.443       .  S
C44         C566   1.427       .  S
C45         C562   1.448       .  S
C46         C559   1.449       .  S
C47         C572   1.441       .  S
C48         C553   1.468       .  S
C48         C555   1.479       .  S
C48         C557   1.474       .  S
C48         C574   1.478       .  S
C49         C548   1.464       .  S
C49         C549   1.464       .  S
C49         C551   1.466       .  S
C49         C575   1.468       .  S
Zn50         O54   1.967       .  S
Zn50         O55   2.028       .  S
Zn50         O59   2.122       .  S
Zn50         O66   2.032       .  S
Zn51         O54   1.967       .  S
Zn51         O56   2.130       .  S
Zn51         O58   2.037       .  S
Zn51         O62   2.025       .  S
Zn52         O54   1.910       .  S
Zn52         O57   1.922       .  S
Zn52         O60   1.914       .  S
Zn52         O63   1.918       .  S
Zn53         O54   1.972       .  S
Zn53         O61   2.088       .  S
Zn53         O64   2.022       .  S
Zn53         O65   2.007       .  S
O55          C67   1.276       .  A
O56          C68   1.287       .  A
O57          C69   1.257       .  A
O58          C67   1.277       .  A
O59          C69   1.286       .  A
O60          C68   1.256       .  A
O61          C70   1.281       .  A
O62          C71   1.273       .  A
O63          C70   1.256       .  A
O64          C71   1.273       .  A
O65          C72   1.271       .  A
O66          C72   1.274       .  A
C67         C537   1.450       .  S
C68         C543   1.443       .  S
C69         C541   1.442       .  S
C70         C552   1.431       .  S
C71         C546   1.447       .  S
C72         C540   1.444       .  S
C73         C533   1.478       .  S
C73         C535   1.475       .  S
C73         C538   1.481   1_556  S
C73         C582   1.477       .  S
C74         C528   1.479       .  S
C74         C529   1.476       .  S
C74         C532   1.482       .  S
C74         C545   1.476       .  S
C75         C519   1.479       .  S
C75         C522   1.472   1_565  S
C75         C523   1.481       .  S
C75         C525   1.479       .  S
C76         C513   1.480   1_556  S
C76         C515   1.474   1_556  S
C76         C517   1.475       .  S
C76         C560   1.481       .  S
C77         C505   1.476       .  S
C77         C507   1.475       .  S
C77         C509   1.483       .  S
C77         C512   1.476   1_556  S
C78         C498   1.477       .  S
C78         C500   1.487       .  S
C78         C501   1.480       .  S
C78         C504   1.479       .  S
C79         C491   1.464       .  S
C79         C494   1.460       .  S
C79         C495   1.464       .  S
C79         C565   1.464       .  S
C80         C486   1.471       .  S
C80         C487   1.472       .  S
C80         C489   1.471       .  S
C80         C542   1.479   1_455  S
Zn81         O85   1.970       .  S
Zn81         O86   2.114       .  S
Zn81         O90   2.019       .  S
Zn81         O97   2.016       .  S
Zn82         O85   1.903       .  S
Zn82         O87   1.906       .  S
Zn82         O89   1.911       .  S
Zn82         O93   1.905       .  S
Zn83         O85   1.968       .  S
Zn83         O88   2.025       .  S
Zn83         O91   2.126       .  S
Zn83         O94   2.034       .  S
Zn84         O85   1.970       .  S
Zn84         O92   2.029       .  S
Zn84         O95   2.104       .  S
Zn84         O96   2.016       .  S
O86          C98   1.284       .  A
O87          C99   1.255       .  A
O88         C100   1.274       .  A
O89          C98   1.255       .  A
O90         C100   1.275       .  A
O91          C99   1.286       .  A
O92         C101   1.274       .  A
O93         C102   1.255       .  A
O94         C101   1.275       .  A
O95         C102   1.283       .  A
O96         C103   1.273       .  A
O97         C103   1.272       .  A
C98         C511   1.438       .  S
C99         C527   1.440       .  S
C100        C483   1.445       .  S
C101        C480   1.450       .  S
C102        C482   1.433       .  S
C103        C485   1.442       .  S
C104        C473   1.483       .  S
C104        C475   1.478       .  S
C104        C477   1.479       .  S
C104        C479   1.480       .  S
C105        C467   1.475       .  S
C105        C470   1.467       .  S
C105        C471   1.477       .  S
C105        C544   1.481       .  S
Zn106       O110   1.909       .  S
Zn106       O111   1.907       .  S
Zn106       O115   1.912       .  S
Zn106       O122   1.922       .  S
Zn107       O110   1.973       .  S
Zn107       O112   2.025       .  S
Zn107       O114   2.090       .  S
Zn107       O118   2.013       .  S
Zn108       O110   1.970       .  S
Zn108       O113   2.114       .  S
Zn108       O116   2.026       .  S
Zn108       O119   2.025       .  S
Zn109       O110   1.966       .  S
Zn109       O117   2.029       .  S
Zn109       O120   2.032       .  S
Zn109       O121   2.129       .  S
O111        C123   1.255       .  A
O112        C124   1.273       .  A
O113        C125   1.284       .  A
O114        C123   1.281       .  A
O115        C125   1.256       .  A
O116        C124   1.273       .  A
O117        C126   1.276       .  A
O118        C127   1.272       .  A
O119        C126   1.275       .  A
O120        C127   1.274       .  A
O121        C128   1.286       .  A
O122        C128   1.257       .  A
C123        C492   1.429       .  S
C124        C465   1.447       .  S
C125        C461   1.437       .  S
C126        C514   1.448       .  S
C127        C472   1.445       .  S
C128        C463   1.445       .  S
C129        C458   1.475       .  S
C129        C459   1.470       .  S
C129        C462   1.474   1_565  S
C129        C539   1.475       .  S
C130        C452   1.482       .  S
C130        C453   1.481       .  S
C130        C456   1.481       .  S
C130        C561   1.478       .  S
Zn131       O135   1.973       .  S
Zn131       O136   2.113       .  S
Zn131       O140   2.011       .  S
Zn131       O147   2.035       .  S
Zn132       O135   1.901       .  S
Zn132       O137   1.906       .  S
Zn132       O139   1.907       .  S
Zn132       O143   1.890       .  S
Zn133       O135   1.971       .  S
Zn133       O138   1.997       .  S
Zn133       O141   2.107       .  S
Zn133       O144   2.024       .  S
Zn134       O135   1.969       .  S
Zn134       O142   2.034       .  S
Zn134       O145   2.138       .  S
Zn134       O146   2.049       .  S
O136        C148   1.284       .  A
O137        C149   1.254       .  A
O138        C150   1.271       .  A
O139        C148   1.255       .  A
O140        C150   1.272       .  A
O141        C149   1.282       .  A
O142        C151   1.276       .  A
O143        C152   1.253       .  A
O144        C151   1.274       .  A
O145        C152   1.288       .  A
O146        C153   1.277       .  A
O147        C153   1.276       .  A
C148        C449   1.437       .  S
C149        C521   1.435       .  S
C150        C445   1.435       .  S
C151        C447   1.448       .  S
C152        C455   1.440       .  S
C153        C499   1.456       .  S
C154        C442   1.468       .  S
C154        C444   1.478       .  S
C154        C446   1.465       .  S
C154        C563   1.479   1_455  S
C155        C435   1.477       .  S
C155        C438   1.481   1_655  S
C155        C439   1.476       .  S
C155        C466   1.477       .  S
Zn156       O160   1.920       .  S
Zn156       O161   2.036       .  S
Zn156       O165   2.037       .  S
Zn156       O172   2.132   1_554  S
Zn157       O160   1.917   1_645  S
Zn157       O162   2.038       .  S
Zn157       O164   2.040   1_645  S
Zn157       O168   2.119   1_545  S
Zn158       O160   1.923   1_546  S
Zn158       O163   2.016       .  S
Zn158       O166   2.026   1_556  S
Zn158       O169   2.096   1_455  S
Zn159       O160   1.865   1_656  S
Zn159       O167   1.945       .  S
Zn159       O170   1.947       .  S
Zn159       O171   1.947       .  S
O161        C173   1.278       .  A
O162        C174   1.277       .  A
O163        C175   1.275       .  A
O164        C173   1.278       .  A
O165        C175   1.277   1_564  A
O166        C174   1.275   1_455  A
O167        C176   1.259   1_565  A
O168        C177   1.287       .  A
O169        C176   1.282       .  A
O170        C177   1.261   1_556  A
O171        C178   1.260   1_655  A
O172        C178   1.286       .  A
C173        C434   1.449       .  S
C174        C440   1.446       .  S
C175        C432   1.442       .  S
C176        C569   1.437   1_545  S
C177        C536   1.443       .  S
C178        C430   1.449       .  S
Zn179       O183   1.900       .  S
Zn179       O184   1.896       .  S
Zn179       O188   1.913       .  S
Zn179       O195   1.897       .  S
Zn180       O183   1.967       .  S
Zn180       O185   2.020       .  S
Zn180       O187   2.111       .  S
Zn180       O191   2.028       .  S
Zn181       O183   1.971       .  S
Zn181       O186   2.094       .  S
Zn181       O189   2.016       .  S
Zn181       O192   2.012       .  S
Zn182       O183   1.966       .  S
Zn182       O190   2.031       .  S
Zn182       O193   2.033       .  S
Zn182       O194   2.135       .  S
O184        C196   1.254       .  A
O185        C197   1.272       .  A
O186        C198   1.281       .  A
O187        C196   1.284       .  A
O188        C198   1.255       .  A
O189        C197   1.272       .  A
O190        C199   1.275       .  A
O191        C200   1.275       .  A
O192        C199   1.273       .  A
O193        C200   1.276       .  A
O194        C201   1.287       .  A
O195        C201   1.254       .  A
C196        C425   1.433       .  S
C197        C423   1.443       .  S
C198        C427   1.433       .  S
C199        C420   1.445       .  S
C200        C421   1.449       .  S
C201        C437   1.440       .  S
C202        C417   1.474       .  S
C202        C426   1.471   1_565  S
C202        C433   1.480       .  S
C202        C484   1.476       .  S
Zn203       O207   1.900   1_655  S
Zn203       O208   1.907       .  S
Zn203       O212   1.904       .  S
Zn203       O219   1.898       .  S
Zn204       O207   1.960   1_565  S
Zn204       O209   2.022       .  S
Zn204       O211   2.121   1_455  S
Zn204       O215   2.022       .  S
Zn205       O207   1.972   1_665  S
Zn205       O210   2.077   1_565  S
Zn205       O213   2.003       .  S
Zn205       O216   2.012   1_665  S
Zn206       O207   1.964       .  S
Zn206       O214   2.031       .  S
Zn206       O217   2.030       .  S
Zn206       O218   2.132       .  S
O208        C220   1.255   1_545  A
O209        C221   1.272   1_455  A
O210        C222   1.279       .  A
O211        C220   1.285       .  A
O212        C222   1.255       .  A
O213        C221   1.271       .  A
O214        C223   1.275       .  A
O215        C224   1.276       .  A
O216        C223   1.271       .  A
O217        C224   1.276   1_545  A
O218        C225   1.287       .  A
O219        C225   1.254   1_655  A
C220        C568   1.439       .  S
C221        C490   1.441   1_655  S
C222        C493   1.425       .  S
C223        C418   1.445       .  S
C224        C476   1.447       .  S
C225        C443   1.440       .  S
C226        C416   1.475   1_554  S
C226        C428   1.469       .  S
C226        C431   1.474   1_554  S
C226        C450   1.474   1_554  S
Zn227       O231   1.922   1_544  S
Zn227       O232   2.018       .  S
Zn227       O236   2.036   1_554  S
Zn227       O243   2.107       .  S
Zn228       O231   1.921       .  S
Zn228       O233   2.034       .  S
Zn228       O235   2.037       .  S
Zn228       O239   2.131   1_556  S
Zn229       O231   1.917   1_545  S
Zn229       O234   2.044       .  S
Zn229       O237   2.044   1_545  S
Zn229       O240   2.131   1_545  S
Zn230       O231   1.862   1_554  S
Zn230       O238   1.942       .  S
Zn230       O241   1.950       .  S
Zn230       O242   1.944       .  S
O232        C244   1.275       .  A
O233        C245   1.278       .  A
O234        C246   1.278       .  A
O235        C244   1.277   1_566  A
O236        C246   1.276       .  A
O237        C245   1.279       .  A
O238        C247   1.260   1_554  A
O239        C248   1.287       .  A
O240        C247   1.288       .  A
O241        C248   1.261       .  A
O242        C249   1.260   1_565  A
O243        C249   1.284       .  A
C244        C415   1.444       .  S
C245        C524   1.450       .  S
C246        C454   1.451       .  S
C247        C534   1.445       .  S
C248        C531   1.449       .  S
C249        C460   1.439   1_545  S
Zn250       O254   1.972   1_565  S
Zn250       O255   1.998       .  S
Zn250       O259   2.028   1_565  S
Zn250       O266   2.089   1_565  S
Zn251       O254   1.964   1_565  S
Zn251       O256   2.020       .  S
Zn251       O258   2.016       .  S
Zn251       O262   2.111       .  S
Zn252       O254   1.966       .  S
Zn252       O257   2.029       .  S
Zn252       O260   2.036       .  S
Zn252       O263   2.123       .  S
Zn253       O254   1.906       .  S
Zn253       O261   1.914       .  S
Zn253       O264   1.921       .  S
Zn253       O265   1.902       .  S
O255        C267   1.271       .  A
O256        C268   1.274       .  A
O257        C269   1.274       .  A
O258        C267   1.272       .  A
O259        C269   1.274       .  A
O260        C268   1.276   1_545  A
O261        C270   1.256       .  A
O262        C271   1.284       .  A
O263        C270   1.286       .  A
O264        C271   1.257   1_545  A
O265        C272   1.255       .  A
O266        C272   1.281       .  A
C267        C411   1.437       .  S
C268        C478   1.448       .  S
C269        C526   1.449       .  S
C270        C414   1.440       .  S
C271        C457   1.439       .  S
C272        C496   1.427       .  S
C273        C409   1.474       .  S
C273        C413   1.477       .  S
C273        C424   1.472       .  S
C273        C464   1.483       .  S
Zn274       O278   1.863   1_654  S
Zn274       O279   1.944       .  S
Zn274       O283   1.947       .  S
Zn274       O290   1.947       .  S
Zn275       O278   1.914   1_655  S
Zn275       O280   2.031       .  S
Zn275       O282   2.118       .  S
Zn275       O286   2.035       .  S
Zn276       O278   1.914   1_554  S
Zn276       O281   2.093   1_455  S
Zn276       O284   2.019   1_454  S
Zn276       O287   2.023       .  S
Zn277       O278   1.917       .  S
Zn277       O285   2.029       .  S
Zn277       O288   2.030       .  S
Zn277       O289   2.115   1_556  S
O279        C291   1.260   1_554  A
O280        C292   1.277       .  A
O281        C293   1.283       .  A
O282        C291   1.286       .  A
O283        C293   1.261       .  A
O284        C292   1.275       .  A
O285        C294   1.276   1_556  A
O286        C295   1.277   1_655  A
O287        C294   1.276       .  A
O288        C295   1.278       .  A
O289        C296   1.285       .  A
O290        C296   1.260   1_655  A
C291        C516   1.443       .  S
C292        C408   1.442       .  S
C293        C469   1.437       .  S
C294        C508   1.443       .  S
C295        C503   1.447       .  S
C296        C436   1.443       .  S
Zn297       O301   1.871   1_556  S
Zn297       O302   1.946       .  S
Zn297       O306   1.945       .  S
Zn297       O313   1.946       .  S
Zn298       O301   1.922       .  S
Zn298       O303   2.045       .  S
Zn298       O305   2.123       .  S
Zn298       O309   2.040       .  S
Zn299       O301   1.924   1_556  S
Zn299       O304   2.097       .  S
Zn299       O307   2.018   1_556  S
Zn299       O310   2.030       .  S
Zn300       O301   1.923       .  S
Zn300       O308   2.053       .  S
Zn300       O311   2.047       .  S
Zn300       O312   2.138   1_554  S
O302        C314   1.260   1_556  A
O303        C315   1.278       .  A
O304        C316   1.282       .  A
O305        C314   1.286       .  A
O306        C316   1.260       .  A
O307        C315   1.274       .  A
O308        C317   1.279   1_554  A
O309        C318   1.278       .  A
O310        C317   1.277       .  A
O311        C318   1.280       .  A
O312        C319   1.288       .  A
O313        C319   1.260       .  A
C314        C518   1.444       .  S
C315        C530   1.446       .  S
C316        C554   1.437       .  S
C317        C510   1.451       .  S
C318        C405   1.451       .  S
C319        C451   1.449       .  S
Zn320       O324   1.902   1_655  S
Zn320       O325   1.898       .  S
Zn320       O329   1.918       .  S
Zn320       O336   1.906       .  S
Zn321       O324   1.970   1_655  S
Zn321       O326   2.006       .  S
Zn321       O328   2.091       .  S
Zn321       O332   2.029       .  S
Zn322       O324   1.965       .  S
Zn322       O327   2.112   1_455  S
Zn322       O330   2.013       .  S
Zn322       O333   2.020       .  S
Zn323       O324   1.962       .  S
Zn323       O331   2.018       .  S
Zn323       O334   2.030       .  S
Zn323       O335   2.112       .  S
O325        C337   1.255       .  A
O326        C338   1.272       .  A
O327        C339   1.283       .  A
O328        C337   1.281       .  A
O329        C339   1.256       .  A
O330        C338   1.272   1_455  A
O331        C340   1.273       .  A
O332        C341   1.273   1_655  A
O333        C340   1.275       .  A
O334        C341   1.275       .  A
O335        C342   1.285       .  A
O336        C342   1.255   1_655  A
C337        C550   1.427       .  S
C338        C441   1.438   1_655  S
C339        C468   1.439       .  S
C340        C403   1.444       .  S
C341        C502   1.450       .  S
C342        C488   1.435       .  S
C343        C401   1.475       .  S
C343        C404   1.474       .  S
C343        C422   1.480       .  S
C343        C448   1.478       .  S
Zn344       O348   1.903       .  S
Zn344       O349   1.899       .  S
Zn344       O353   1.907       .  S
Zn344       O360   1.904       .  S
Zn345       O348   1.967       .  S
Zn345       O350   2.044       .  S
Zn345       O352   2.132       .  S
Zn345       O356   2.024       .  S
Zn346       O348   1.971       .  S
Zn346       O351   2.090       .  S
Zn346       O354   2.017       .  S
Zn346       O357   2.018       .  S
Zn347       O348   1.965       .  S
Zn347       O355   2.018       .  S
Zn347       O358   2.027       .  S
Zn347       O359   2.126       .  S
O349        C361   1.254       .  A
O350        C362   1.276       .  A
O351        C363   1.281       .  A
O352        C361   1.287       .  A
O353        C363   1.255       .  A
O354        C362   1.272       .  A
O355        C364   1.272       .  A
O356        C365   1.275       .  A
O357        C364   1.273       .  A
O358        C365   1.277       .  A
O359        C366   1.285       .  A
O360        C366   1.254       .  A
C361        C397   1.440       .  S
C362        C400   1.450       .  S
C363        C547   1.430       .  S
C364        C410   1.443       .  S
C365        C402   1.445       .  S
C366        C556   1.441       .  S
C367        C399   1.480       .  S
C367        C406   1.484       .  S
C367        C419   1.475       .  S
C367        C481   1.469       .  S
C368        C396   1.483   1_655  S
C368        C407   1.473       .  S
C368        C429   1.484       .  S
C368        C584   1.482       .  S
Zn369       O373   1.863       .  S
Zn369       O374   1.950       .  S
Zn369       O378   1.946       .  S
Zn369       O385   1.936       .  S
Zn370       O373   1.917       .  S
Zn370       O375   2.019       .  S
Zn370       O377   2.091       .  S
Zn370       O381   2.022       .  S
Zn371       O373   1.922       .  S
Zn371       O376   2.121       .  S
Zn371       O379   2.038       .  S
Zn371       O382   2.030       .  S
Zn372       O373   1.917       .  S
Zn372       O380   2.052       .  S
Zn372       O383   2.038       .  S
Zn372       O384   2.145       .  S
O374        C386   1.261       .  A
O375        C387   1.274       .  A
O376        C388   1.285       .  A
O377        C386   1.283       .  A
O378        C388   1.259       .  A
O379        C387   1.276       .  A
O380        C389   1.280       .  A
O381        C390   1.275       .  A
O382        C389   1.278       .  A
O383        C390   1.278       .  A
O384        C391   1.289       .  A
O385        C391   1.259       .  A
C386        C393   1.436       .  S
C387        C506   1.445       .  S
C388        C520   1.446       .  S
C389        C395   1.450       .  S
C390        C497   1.446       .  S
C391        C474   1.448       .  S
C392        C394   1.466       .  S
C392        C398   1.478       .  S
C392        C412   1.468       .  S
C392        C578   1.478       .  S
C393        C394   1.209       .  T
C395        C396   1.216       .  T
C397        C398   1.215       .  T
C399        C400   1.216       .  T
C401        C402   1.214       .  T
C403        C404   1.213       .  T
C405        C406   1.218       .  T
C407        C408   1.213       .  T
C409        C410   1.213       .  T
C411        C412   1.210       .  T
C413        C414   1.214       .  T
C415        C416   1.213   1_554  T
C417        C418   1.214   1_565  T
C419        C420   1.214       .  T
C421        C422   1.216       .  T
C423        C424   1.213       .  T
C425        C426   1.211       .  T
C427        C428   1.209       .  T
C429        C430   1.217   1_655  T
C431        C432   1.212       .  T
C433        C434   1.216       .  T
C435        C436   1.214   1_655  T
C437        C438   1.216       .  T
C439        C440   1.214       .  T
C441        C442   1.210       .  T
C443        C444   1.215       .  T
C445        C446   1.208       .  T
C447        C448   1.216       .  T
C449        C450   1.212       .  T
C451        C452   1.218       .  T
C453        C454   1.217       .  T
C455        C456   1.216       .  T
C457        C458   1.213       .  T
C459        C460   1.211       .  T
C461        C462   1.212       .  T
C463        C464   1.217       .  T
C465        C466   1.214       .  T
C467        C468   1.213       .  T
C469        C470   1.210       .  T
C471        C472   1.214       .  T
C473        C474   1.217       .  T
C475        C476   1.215       .  T
C477        C478   1.216       .  T
C479        C480   1.217       .  T
C481        C482   1.209       .  T
C483        C484   1.215       .  T
C485        C486   1.212       .  T
C487        C488   1.211       .  T
C489        C490   1.212       .  T
C491        C492   1.207       .  T
C493        C494   1.205       .  T
C495        C496   1.207       .  T
C497        C498   1.214       .  T
C499        C500   1.220       .  T
C501        C502   1.217       .  T
C503        C504   1.215       .  T
C505        C506   1.213       .  T
C507        C508   1.213   1_556  T
C509        C510   1.217       .  T
C511        C512   1.213       .  T
C513        C514   1.216       .  T
C515        C516   1.213   1_554  T
C517        C518   1.214   1_556  T
C519        C520   1.216       .  T
C521        C522   1.211       .  T
C523        C524   1.216       .  T
C525        C526   1.216   1_565  T
C527        C528   1.215       .  T
C529        C530   1.213       .  T
C531        C532   1.218       .  T
C533        C534   1.216       .  T
C535        C536   1.214   1_556  T
C537        C538   1.217       .  T
C539        C540   1.214       .  T
C541        C542   1.215       .  T
C543        C544   1.216       .  T
C545        C546   1.214       .  T
C547        C548   1.207       .  T
C549        C550   1.207       .  T
C551        C552   1.208       .  T
C553        C554   1.210       .  T
C555        C556   1.215       .  T
C557        C558   1.214       .  T
C559        C560   1.216       .  T
C561        C562   1.215       .  T
C563        C564   1.215       .  T
C565        C566   1.206       .  T
C567        C568   1.214       .  T
C569        C570   1.210       .  T
C571        C572   1.215       .  T
C573        C574   1.215       .  T
C575        C576   1.209       .  T
C577        C578   1.215       .  T
C579        C580   1.213       .  T
C581        C582   1.215       .  T
C583        C584   1.218       .  T
