geometry optimzed in LAMMPS
_audit_creation_date              2020-11-30 
_audit_creation_method            'lammps2cif' 
_symmetry_space_group_name_H-M    'P1' 
_symmetry_Int_Tables_number       1 
_symmetry_cell_setting            triclinic 
loop_ 
_symmetry_equiv_pos_as_xyz 
  x,y,z 
_cell_length_a                    38.35167257574055 
_cell_length_b                    38.06505210915919 
_cell_length_c                    37.66234312875337 
_cell_angle_alpha                 91.34854909039228 
_cell_angle_beta                  90.58192920381939 
_cell_angle_gamma                 92.02507502738864 
loop_ 
_atom_site_label 
_atom_site_type_symbol 
_atom_site_fract_x 
_atom_site_fract_y 
_atom_site_fract_z 
_atom_site_charge 
C1          C  0.50565436  0.12796252  0.23923880    -0.01700
O2          O  0.47112764  0.05495162  0.40025126    -0.85700
O3          O  0.13007761  0.47269643  0.45696016    -0.85870
O4          O  0.07597253  0.08067178  0.43098290    -0.87540
O5          O  0.04231094  0.47863564  0.36500932    -0.86290
O6          O  0.00994403  0.42960197  0.38034618    -0.85880
O7          O  0.08261167  0.09158065  0.49079105    -0.87250
O8          O  0.11191569  0.50496139  0.41114186    -0.85730
O9          O  0.02565897  0.04820743  0.37695281    -0.85320
Zr10       Zr  0.05240702  0.01763795  0.42053044     2.84310
O11         O  0.05146141  0.45935316  0.43833030    -1.07290
O12         O  0.01935723  0.05285583  0.45898231    -1.08020
C13         C  0.99461313  0.05821834  0.37542480     1.07410
C14         C  0.13607377  0.48956337  0.42753849     1.07350
C15         C  0.08493013  0.10081047  0.45861678     1.10330
C16         C  0.02585445  0.44853432  0.35720846     1.08110
H17         H  0.09968739  0.02941863  0.47694108     0.33670
O18         O  0.07615136  0.01960323  0.47746137    -1.28250
H19         H  0.48473902  0.49344559  0.39901073     0.33340
O20         O  0.99503766  0.49419790  0.42249914    -1.29920
O21         O  0.07400114  0.43659617  0.05565942    -0.85700
O22         O  0.41277662  0.02628406  0.50307520    -0.87190
O23         O  0.09999039  0.04396316  0.04758117    -0.85770
O24         O  0.03072306  0.38464299  0.44868696    -0.85820
O25         O  0.43561202  0.44645561  0.41080953    -0.85530
O26         O  0.00320912  0.10500083  0.00763439    -0.85340
O27         O  0.49185787  0.01258957  0.09193847    -0.85710
O28         O  0.45591921  0.40922657  0.02959194    -0.85170
O29         O  0.02692453  0.06057342  0.07823411    -0.86240
O30         O  0.45829632  0.39266477  0.47048534    -0.85390
O31         O  0.11916761  0.49011471  0.02970680    -0.85790
O32         O  0.45411251  0.08833382  0.47627772    -0.85510
O33         O  0.41776646  0.50064850  0.42872686    -0.85170
O34         O  0.08397519  0.40562655  0.46858014    -0.85570
O35         O  0.02019504  0.44437423  0.08040324    -0.85870
O36         O  0.42484843  0.48771145  0.04671227    -0.87210
Zr37       Zr  0.07608280  0.46178804  0.49498720     2.83100
Zr38       Zr  0.46279090  0.02889389  0.46092177     2.83500
Zr39       Zr  0.04212492  0.05265287  0.01695708     2.84090
Zr40       Zr  0.99348478  0.43658907  0.44172924     2.83360
Zr41       Zr  0.48440575  0.47102918  0.03788740     2.84220
O42         O  0.46038186  0.47097794  0.48044325    -1.07780
O43         O  0.04168772  0.49431967  0.03396202    -1.07280
C44         C  0.05184344  0.43474537  0.08155323     1.07380
C45         C  0.40465378  0.00940866  0.03174329     1.10000
C46         C  0.12263168  0.01904963  0.04713456     1.07550
C47         C  0.06278532  0.38051726  0.45904518     1.07910
C48         C  0.41402179  0.47232760  0.41030905     1.07500
C49         C  0.47374216  0.11184841  0.49181478     1.07050
C50         C  0.00837743  0.04262550  0.10003842     1.07470
C51         C  0.44961705  0.38699518  0.00275434     1.06990
H52         H  0.47129819  0.04388813  0.03398309     0.33660
O53         O  0.48507493  0.02928500  0.01866763    -1.28880
H54         H  0.02000721  0.41412363  0.00805002     0.33690
O55         O  0.01883294  0.43758182  0.49900925    -1.30260
C56         C  0.26448813  0.01513001  0.10286778    -0.01700
O57         O  0.17471493  0.19891315  0.27268882    -0.85700
O58         O  0.25265170  0.27463670  0.10981355    -0.85870
O59         O  0.15529255  0.27364241  0.19722896    -0.87540
O60         O  0.20962515  0.17533233  0.16028551    -0.86290
O61         O  0.26293494  0.15475826  0.17644216    -0.85880
O62         O  0.16999246  0.32393069  0.22919675    -0.87250
O63         O  0.20137145  0.24716988  0.12550904    -0.85730
O64         O  0.16253883  0.19796000  0.21321021    -0.85320
Zr65       Zr  0.20566540  0.23481663  0.18756121     2.84310
O66         O  0.26288518  0.23316632  0.16732460    -1.07290
O67         O  0.20518789  0.25800990  0.24514593    -1.08020
C68         C  0.15363457  0.19241976  0.24518357     1.07410
C69         C  0.22261466  0.25892476  0.10202650     1.07350
C70         C  0.14788487  0.30324864  0.21295238     1.10330
C71         C  0.23331951  0.15188164  0.16062958     1.08110
H72         H  0.21463070  0.30668374  0.17011850     0.33670
O73         O  0.22838335  0.29259070  0.18557824    -1.28250
H74         H  0.22736023  0.17632080  0.22643193     0.33340
O75         O  0.23772999  0.19974189  0.22538667    -1.29920
O76         O  0.34527865  0.31981769  0.17197559    -0.85700
O77         O  0.28019799  0.22480506  0.33384579    -0.87190
O78         O  0.24202132  0.36917689  0.20757381    -0.85770
O79         O  0.32055963  0.20389667  0.14500078    -0.85820
O80         O  0.29174983  0.14828109  0.24799760    -0.85530
O81         O  0.19944786  0.30829401  0.30296444    -0.85340
O82         O  0.31333630  0.34144608  0.29371479    -0.85710
O83         O  0.37400320  0.24650332  0.25721954    -0.85170
O84         O  0.25898320  0.35775611  0.27724545    -0.86240
O85         O  0.35383128  0.19916966  0.22504963    -0.85390
O86         O  0.27297201  0.35149075  0.15943317    -0.85790
O87         O  0.20983696  0.25443432  0.32647189    -0.85510
O88         O  0.25175039  0.16239208  0.28950521    -0.85170
O89         O  0.33425502  0.26170983  0.14139835    -0.85570
O90         O  0.36327290  0.31584727  0.23024069    -0.85870
O91         O  0.32528421  0.26404966  0.32308280    -0.87210
Zr92       Zr  0.28633697  0.29078653  0.16657194     2.83100
Zr93       Zr  0.23803422  0.22306317  0.28229298     2.83500
Zr94       Zr  0.22917325  0.31508465  0.24390924     2.84090
Zr95       Zr  0.29526895  0.19964446  0.20650957     2.83360
Zr96       Zr  0.32015875  0.28260099  0.26294418     2.84220
O97         O  0.29607558  0.22447818  0.26357834    -1.07780
O98         O  0.28654930  0.31538662  0.22416643    -1.07280
C99         C  0.36793266  0.32444755  0.19773002     1.07380
C100        C  0.30935527  0.24167172  0.34279773     1.10000
C101        C  0.25896211  0.37566408  0.17830268     1.07550
C102        C  0.33231640  0.23108953  0.12769302     1.07910
C103        C  0.27325084  0.14083626  0.27603886     1.07500
C104        C  0.19688854  0.28476065  0.32761475     1.07050
C105        C  0.28754027  0.36290945  0.29400479     1.07470
C106        C  0.37842729  0.21621647  0.24124033     1.06990
H107        H  0.26260486  0.29131047  0.30582665     0.33660
O108        O  0.26223973  0.28118231  0.28208454    -1.28880
H109        H  0.34193062  0.25653478  0.19985725     0.33690
O110        O  0.31781427  0.25720858  0.20644856    -1.30260
C111        C  0.14017525  0.24939172  0.46524073    -0.01700
C112        C  0.01495199  0.37267803  0.21222222    -0.01700
C113        C  0.38629652  0.23957064  0.48283120    -0.01700
C114        C  0.27597145  0.50056442  0.35061633    -0.01700
C115        C  0.15565175  0.26102681  0.42773696    -0.04550
C116        C  0.14412891  0.24505525  0.39393072    -0.01670
C117        C  0.14827435  0.26358746  0.36209381     0.03320
C118        C  0.17543254  0.28887434  0.35958883    -0.04550
C119        C  0.18993428  0.30278404  0.39145677    -0.01650
C120        C  0.17398794  0.29454890  0.42393727     0.03320
C121        C  0.12749574  0.21050601  0.38868884     0.37970
C122        C  0.22418020  0.32010354  0.39205351     0.37960
C123        C  0.17792904  0.32116992  0.45202099     0.36380
C124        C  0.12901483  0.25232178  0.32999788     0.36380
N125        N  0.18240757  0.34327356  0.47339390    -0.38440
N126        N  0.11334448  0.24350083  0.30473139    -0.38440
N127        N  0.25212030  0.33261579  0.39288960    -0.37880
N128        N  0.11381390  0.18365387  0.38139322    -0.37880
C129        C  0.20998963  0.25211611  0.06395263    -0.04550
C130        C  0.21798196  0.27337457  0.03477503    -0.01670
C131        C  0.20213332  0.26531232  0.00086450     0.03320
C132        C  0.16797496  0.24810643  0.99832557    -0.04550
C133        C  0.15978873  0.22873174  0.02995705    -0.01650
C134        C  0.18479480  0.22490529  0.05706013     0.03320
C135        C  0.23823186  0.30582800  0.03975103     0.37970
C136        C  0.12513059  0.21841918  0.04109538     0.37960
C137        C  0.18197840  0.19401042  0.07885739     0.36380
C138        C  0.22527012  0.26798717  0.47126131     0.36380
N139        N  0.17840033  0.16842533  0.09456402    -0.38440
N140        N  0.24518651  0.27080930  0.44863969    -0.38440
N141        N  0.09948378  0.21025388  0.05510823    -0.37880
N142        N  0.25302795  0.33269874  0.04355226    -0.37880
C143        C  0.32749000  0.23603707  0.37816386    -0.04550
C144        C  0.36385844  0.24170688  0.38095628    -0.01670
C145        C  0.38123153  0.24580380  0.41403432     0.03320
C146        C  0.36392073  0.23786259  0.44660903    -0.04550
C147        C  0.32753266  0.22588058  0.44264463    -0.01650
C148        C  0.30978639  0.22655711  0.40904226     0.03320
C149        C  0.38461540  0.23848399  0.34942955     0.37970
C150        C  0.30786925  0.20961017  0.47088931     0.37960
C151        C  0.27344619  0.21558802  0.40521295     0.36380
C152        C  0.41765104  0.25721550  0.41265038     0.36380
N153        N  0.24445834  0.20768374  0.39990238    -0.38440
N154        N  0.44604637  0.26699205  0.40766003    -0.38440
N155        N  0.29099548  0.19646467  0.49253946    -0.37880
N156        N  0.40166545  0.23460630  0.32477096    -0.37880
C157        C  0.34177478  0.22995973  0.08920895    -0.04550
C158        C  0.33468205  0.25930904  0.06775046    -0.01670
C159        C  0.34204580  0.25891122  0.03143070     0.03320
C160        C  0.36234722  0.23237921  0.01632966    -0.04550
C161        C  0.36201706  0.20016065  0.03578201    -0.01650
C162        C  0.35582174  0.20044847  0.07266193     0.03320
C163        C  0.32059373  0.29137963  0.08222236     0.37970
C164        C  0.36410299  0.16594978  0.01821822     0.37960
C165        C  0.36878297  0.17252555  0.09389044     0.36380
C166        C  0.32092370  0.28065015  0.00960991     0.36380
N167        N  0.38092944  0.15102929  0.11074236    -0.38440
N168        N  0.30204073  0.29792143  0.99420880    -0.38440
N169        N  0.36503707  0.13813435  0.00522973    -0.37880
N170        N  0.30991007  0.31741051  0.09321217    -0.37880
C171        C  0.27183503  0.47081118  0.31996673    -0.04550
C172        C  0.24545000  0.44416071  0.32282336    -0.01670
C173        C  0.25404561  0.40886001  0.32370392     0.03320
C174        C  0.28746538  0.39777446  0.31251204    -0.04550
C175        C  0.31203258  0.42408554  0.30306885    -0.01650
C176        C  0.30136510  0.45923377  0.30067464     0.03320
C177        C  0.20923405  0.45040808  0.31498660     0.37970
C178        C  0.34565708  0.41458379  0.28928326     0.37960
C179        C  0.30595913  0.47241323  0.26541356     0.36380
C180        C  0.22613701  0.38442264  0.33369355     0.36380
N181        N  0.31133887  0.48165494  0.23693205    -0.38440
N182        N  0.20104958  0.36887630  0.34138321    -0.38440
N183        N  0.37266857  0.40711774  0.27863249    -0.37880
N184        N  0.17994677  0.45281918  0.30819050    -0.37880
C185        C  0.27658461  0.10601842  0.29593241    -0.04550
C186        C  0.26026955  0.10092866  0.32960482    -0.01670
C187        C  0.26452010  0.06980473  0.34910931     0.03320
C188        C  0.28075510  0.03957913  0.33386663    -0.04550
C189        C  0.30296817  0.04810249  0.30463153    -0.01650
C190        C  0.29828481  0.07877523  0.28420677     0.03320
C191        C  0.23780766  0.12694430  0.34519001     0.37970
C192        C  0.33613176  0.03159278  0.30020586     0.37960
C193        C  0.31645872  0.08148080  0.25089265     0.36380
C194        C  0.25456950  0.07087072  0.38639081     0.36380
N195        N  0.33087430  0.08229985  0.22412412    -0.38440
N196        N  0.24711298  0.07241594  0.41608586    -0.38440
N197        N  0.36307418  0.01963240  0.29534240    -0.37880
N198        N  0.21935443  0.14696673  0.35789154    -0.37880
C199        C  0.40409103  0.33732906  0.19043894    -0.04550
C200        C  0.41352331  0.37312111  0.19395444    -0.01670
C201        C  0.44897672  0.38410257  0.19932154     0.03320
C202        C  0.47586172  0.35901532  0.20463264    -0.04550
C203        C  0.46481411  0.32257130  0.20184363    -0.01650
C204        C  0.43034452  0.31256941  0.19128565     0.03320
C205        C  0.38636318  0.39873950  0.19348011     0.37970
C206        C  0.48669576  0.29439925  0.21231396     0.37960
C207        C  0.42147787  0.27615798  0.18151840     0.36380
C208        C  0.45637631  0.42162627  0.20237115     0.36380
N209        N  0.41477637  0.24736637  0.17269848    -0.38440
N210        N  0.46010873  0.45186784  0.20474829    -0.38440
N211        N  0.50422914  0.27146635  0.21964019    -0.37880
N212        N  0.36490366  0.41936676  0.19336906    -0.37880
C213        C  0.11114040  0.31449159  0.21328384    -0.04550
C214        C  0.09463900  0.32321974  0.24554264    -0.01670
C215        C  0.05953365  0.33302368  0.24561356     0.03320
C216        C  0.04267371  0.34198163  0.21338623    -0.04550
C217        C  0.05659014  0.32490296  0.18233915    -0.01650
C218        C  0.09150627  0.31479311  0.18181526     0.03320
C219        C  0.11394292  0.32546129  0.27875894     0.37970
C220        C  0.03432100  0.30723320  0.15559751     0.37960
C221        C  0.10708162  0.30440066  0.14856652     0.36380
C222        C  0.04038660  0.33029426  0.27849545     0.36380
N223        N  0.11958960  0.29531504  0.12232336    -0.38440
N224        N  0.02576633  0.32720599  0.30502887    -0.38440
N225        N  0.01773493  0.29127758  0.13454379    -0.37880
N226        N  0.12840648  0.32929001  0.30571897    -0.37880
C227        C  0.26635043  0.48001988  0.12677059    -0.04550
C228        C  0.28205275  0.44857950  0.11293433    -0.01670
C229        C  0.28531750  0.41853326  0.13381347     0.03320
C230        C  0.26379359  0.41288028  0.16367400    -0.04550
C231        C  0.24957112  0.44350518  0.17873595    -0.01650
C232        C  0.25634882  0.47718196  0.16347556     0.03320
C233        C  0.29466698  0.44463493  0.07675364     0.37970
C234        C  0.22969809  0.44119933  0.21097290     0.37960
C235        C  0.25813241  0.50707812  0.18804330     0.36380
C236        C  0.31463603  0.39643214  0.12653169     0.36380
N237        N  0.25933391  0.53038755  0.20840020    -0.38440
N238        N  0.33926691  0.38067041  0.12071814    -0.38440
N239        N  0.21325992  0.43918109  0.23642088    -0.37880
N240        N  0.30465443  0.43946983  0.04825957    -0.37880
C241        C  0.23045755  0.11946674  0.13919203    -0.04550
C242        C  0.21303341  0.08976240  0.15202206    -0.01670
C243        C  0.22394827  0.05588892  0.14173172     0.03320
C244        C  0.25735249  0.05103931  0.12420313    -0.04550
C245        C  0.27597393  0.08342166  0.11570968    -0.01650
C246        C  0.25869226  0.11529687  0.11681705     0.03320
C247        C  0.18325135  0.09436690  0.17496963     0.37970
C248        C  0.31132053  0.08636670  0.10281531     0.37960
C249        C  0.27142623  0.14561859  0.09719630     0.36380
C250        C  0.19949456  0.02703853  0.14901869     0.36380
N251        N  0.28035060  0.16964619  0.08093650    -0.38440
N252        N  0.17992736  0.00472802  0.15670853    -0.38440
N253        N  0.33928070  0.09034961  0.09201664    -0.37880
N254        N  0.15949592  0.09816918  0.19319916    -0.37880
C255        C  0.06043558  0.41817906  0.11542230    -0.04550
C256        C  0.06042303  0.43957027  0.14649807    -0.01670
C257        C  0.04210510  0.42891778  0.17731292     0.03320
C258        C  0.02472091  0.39498875  0.17792714    -0.04550
C259        C  0.02059359  0.37851477  0.14357479    -0.01650
C260        C  0.04542708  0.38483287  0.11762273     0.03320
C261        C  0.08299118  0.47057327  0.14822958     0.37970
C262        C  0.98795945  0.36210303  0.13090831     0.37960
C263        C  0.05404774  0.35768427  0.09221229     0.36380
C264        C  0.03743520  0.45579868  0.20443623     0.36380
N265        N  0.06264259  0.33479473  0.07400031    -0.38440
N266        N  0.03504957  0.47812304  0.22555850    -0.38440
N267        N  0.96216819  0.34944094  0.11958291    -0.37880
N268        N  0.10286302  0.99392884  0.15140101    -0.37880
C269        C  0.01761404  0.39460021  0.25010238    -0.04550
C270        C  0.04972695  0.41193181  0.26303109    -0.01670
C271        C  0.05157150  0.43209778  0.29581077     0.03320
C272        C  0.02306619  0.43320925  0.31914056    -0.04550
C273        C  0.99207762  0.41449867  0.30801083    -0.01650
C274        C  0.99000711  0.39404676  0.27595811     0.03320
C275        C  0.08191394  0.40890821  0.24327131     0.37970
C276        C  0.46100890  0.41523060  0.32985565     0.37960
C277        C  0.46099763  0.36839348  0.27454282     0.36380
C278        C  0.08314952  0.45199576  0.30560814     0.36380
N279        N  0.43719417  0.34887874  0.27535726    -0.38440
N280        N  0.10787732  0.46870750  0.31352156    -0.38440
N281        N  0.43527769  0.41450707  0.34558098    -0.37880
N282        N  0.10771677  0.40694383  0.22776909    -0.37880
C283        C  0.17238119  0.49321045  0.40996318    -0.04550
C284        C  0.20337084  0.48102535  0.42549277    -0.01450
C285        C  0.23685000  0.48729989  0.40954594     0.03320
C286        C  0.24029705  0.49930282  0.37372760    -0.04550
C287        C  0.20861988  0.51186155  0.35848309    -0.01650
C288        C  0.17659097  0.51123605  0.37712513     0.03320
C289        C  0.20124682  0.46231500  0.45853995     0.37970
C290        C  0.20792183  0.52540908  0.32240823     0.37960
C291        C  0.14843810  0.53058129  0.36145209     0.36380
C292        C  0.26705769  0.48320936  0.43192562     0.36380
N293        N  0.12651609  0.54639685  0.34873497    -0.38440
N294        N  0.29109531  0.47858689  0.44982623    -0.38440
N295        N  0.20678724  0.53577372  0.29376549    -0.37880
N296        N  0.19954640  0.44715346  0.98478466    -0.37880
C297        C  0.31057409  0.49106481  0.37188890    -0.04550
C298        C  0.33779898  0.01671494  0.37716434    -0.01670
C299        C  0.37241287  0.00691241  0.37681988     0.03320
C300        C  0.38174635  0.47323883  0.38766773    -0.04550
C301        C  0.35505072  0.44728301  0.38902899    -0.01650
C302        C  0.31985205  0.45555811  0.38073866     0.03320
C303        C  0.33207405  0.05326555  0.38656453     0.37970
C304        C  0.36395623  0.41218768  0.39900588     0.37960
C305        C  0.29359465  0.42878695  0.38867589     0.36380
C306        C  0.39804764  0.03349122  0.36686314     0.36380
N307        N  0.27370262  0.40754340  0.39816248    -0.38440
N308        N  0.41474959  0.05700448  0.35696218    -0.38440
N309        N  0.37160034  0.38414764  0.40638679    -0.37880
N310        N  0.33029687  0.08266709  0.39471595    -0.37880
C311        C  0.23086237  0.01344197  0.07741575    -0.04550
C312        C  0.20664424  0.48464974  0.07847242    -0.01670
C313        C  0.17077635  0.49014611  0.07779728     0.03320
C314        C  0.15728215  0.02182794  0.06519059    -0.04550
C315        C  0.18111546  0.04899139  0.05650950    -0.01650
C316        C  0.21743569  0.04492691  0.06171739     0.03320
C317        C  0.21674067  0.44857458  0.07351684     0.37970
C318        C  0.16842326  0.08071962  0.04084891     0.37960
C319        C  0.24045012  0.07228432  0.04779176     0.36380
C320        C  0.14827822  0.46128774  0.08917904     0.36380
N321        N  0.25801052  0.09365854  0.03481927    -0.38440
N322        N  0.13369735  0.43646745  0.09925966    -0.38440
N323        N  0.15845323  0.10607411  0.52844048    -0.37880
N324        N  0.22183530  0.41905445  0.06859297    -0.37880
C325        C  0.36961292  0.01454720  0.04940045    -0.04550
C326        C  0.33923027  0.02053889  0.02934351    -0.01670
C327        C  0.30558116  0.01820439  0.04488088     0.03320
C328        C  0.30121441  0.01710888  0.08272968    -0.04550
C329        C  0.33296741  0.01465090  0.10309059    -0.01650
C330        C  0.36587523  0.01123558  0.08664551     0.03320
C331        C  0.34235205  0.02843567  0.49209732     0.37970
C332        C  0.33279354  0.51720203  0.14159307     0.37960
C333        C  0.39609896  0.50534920  0.10908543     0.36380
C334        C  0.27644131  0.01317523  0.02068481     0.36380
N335        N  0.41975057  0.50031562  0.12737993    -0.38440
N336        N  0.25245639  0.00989375  0.00191292    -0.38440
N337        N  0.33453801  0.51954968  0.17222097    -0.37880
N338        N  0.34545551  0.03550112  0.46260176    -0.37880
C339        C  0.45993894  0.14871057  0.48862229    -0.04550
C340        C  0.44211283  0.15665437  0.45684044    -0.01670
C341        C  0.41603912  0.18179246  0.45633816     0.03320
C342        C  0.41446320  0.20885214  0.48340083    -0.04550
C343        C  0.43631725  0.20322852  0.01446165    -0.01650
C344        C  0.45669113  0.17251729  0.01758482     0.03320
C345        C  0.44581728  0.13551528  0.42473686     0.37970
C346        C  0.43599886  0.22740499  0.04494443     0.37960
C347        C  0.47193334  0.16422550  0.05156787     0.36380
C348        C  0.38708769  0.17226435  0.43229175     0.36380
N349        N  0.98380660  0.15768190  0.07889066    -0.38440
N350        N  0.36496257  0.16244986  0.41296811    -0.38440
N351        N  0.43591041  0.24647027  0.06935094    -0.37880
N352        N  0.44490420  0.11993225  0.39809518    -0.37880
C353        C  0.40460500  0.27935682  0.48702352    -0.04550
C354        C  0.38578456  0.31102850  0.48144508    -0.01670
C355        C  0.39781038  0.34463317  0.49529069     0.03320
C356        C  0.43258776  0.35056844  0.00679222    -0.04550
C357        C  0.45403925  0.32112326  0.00522876    -0.01650
C358        C  0.44112122  0.28692423  0.99376158     0.03320
C359        C  0.36043962  0.31242517  0.45270208     0.37970
C360        C  0.49099507  0.32696317  0.01127131     0.37960
C361        C  0.46698269  0.26327733  0.98049608     0.36380
C362        C  0.37535606  0.37448729  0.49347023     0.36380
N363        N  0.48724847  0.24483695  0.96829305    -0.38440
N364        N  0.35748141  0.39830022  0.49210437    -0.38440
N365        N  0.02065189  0.33148103  0.01527408    -0.37880
N366        N  0.34053699  0.31450529  0.42956588    -0.37880
C367        C  0.12417762  0.21026904  0.46274349    -0.04550
C368        C  0.08926684  0.20058436  0.47274332    -0.01670
C369        C  0.07905167  0.16478136  0.47455422     0.03320
C370        C  0.09722450  0.13843756  0.45577931    -0.04550
C371        C  0.13186425  0.14694483  0.44685273    -0.01650
C372        C  0.14622732  0.18129862  0.45449151     0.03320
C373        C  0.06634595  0.22518657  0.99023989     0.37970
C374        C  0.15368943  0.11952052  0.43308824     0.37960
C375        C  0.18375920  0.18525724  0.45677628     0.36380
C376        C  0.05950719  0.15562575  0.00592473     0.36380
N377        N  0.21362977  0.18640795  0.46128883    -0.38440
N378        N  0.04788600  0.15085180  0.03367971    -0.38440
N379        N  0.17092075  0.09754754  0.42201988    -0.37880
N380        N  0.04897696  0.24411820  0.00607867    -0.37880
C381        C  0.11172018  0.27886004  0.47018148    -0.04550
C382        C  0.08518171  0.28411765  0.44311533    -0.01670
C383        C  0.06843181  0.31656081  0.44004100     0.03320
C384        C  0.07728159  0.34478675  0.46321761    -0.04550
C385        C  0.10012649  0.33883845  0.49218235    -0.01650
C386        C  0.11455396  0.30576882  0.49723039     0.03320
C387        C  0.07169780  0.25599151  0.41964823     0.37970
C388        C  0.11133465  0.36730838  0.51667166     0.37960
C389        C  0.13360337  0.30234508  0.53018564     0.36380
C390        C  0.04296084  0.32125861  0.41184095     0.36380
N391        N  0.14880990  0.30287953  0.55684386    -0.38440
N392        N  0.02255988  0.32490965  0.38949830    -0.38440
N393        N  0.12235682  0.38912487  0.03594059    -0.37880
N394        N  0.05801661  0.23485106  0.40122555    -0.37880
C395        C  0.00593699  0.05996056  0.13662314    -0.04550
C396        C  0.47811864  0.08180515  0.14432821    -0.01670
C397        C  0.48138254  0.10795142  0.17217779     0.03320
C398        C  0.00615013  0.10504423  0.20160605    -0.04550
C399        C  0.03404182  0.08201569  0.19262877    -0.01650
C400        C  0.03590558  0.06535304  0.15843078     0.03320
C401        C  0.44922895  0.08242821  0.11906370     0.37970
C402        C  0.06221330  0.07444812  0.21666726     0.37960
C403        C  0.06997954  0.06194279  0.14269271     0.36380
C404        C  0.46406399  0.14013540  0.16422944     0.36380
N405        N  0.09710559  0.06197820  0.12949008    -0.38440
N406        N  0.45011134  0.16524977  0.15604617    -0.38440
N407        N  0.08587779  0.06581191  0.23321472    -0.37880
N408        N  0.42654370  0.08332860  0.09864709    -0.37880
C409        C  0.98797976  0.07550468  0.34196310    -0.04550
C410        C  0.98223127  0.05538367  0.31031133    -0.01670
C411        C  0.98919082  0.07028179  0.27673419     0.03320
C412        C  0.99589359  0.10744950  0.27434664    -0.04550
C413        C  0.49349773  0.12702342  0.30762848    -0.01650
C414        C  0.49870389  0.11057705  0.33939954     0.03320
C415        C  0.97004672  0.01912045  0.31244504     0.37970
C416        C  0.47012258  0.15539309  0.31347791     0.37960
C417        C  0.51449855  0.13064224  0.36912632     0.36380
C418        C  0.98654586  0.04704932  0.24586331     0.36380
N419        N  0.52735582  0.14669598  0.39255495    -0.38440
N420        N  0.98256614  0.02811539  0.22156239    -0.38440
N421        N  0.45030133  0.17641787  0.32114536    -0.37880
N422        N  0.95908983  0.99054834  0.31384874    -0.37880
C423        C  0.41268511  0.19710799  0.23969089    -0.04550
C424        C  0.44557257  0.21172430  0.25059746    -0.01670
C425        C  0.47653157  0.19156326  0.24822667     0.03320
C426        C  0.47438609  0.15449394  0.23849218    -0.04550
C427        C  0.43962626  0.13991618  0.23367251    -0.01650
C428        C  0.41192413  0.16157933  0.22697110     0.03320
C429        C  0.44755248  0.24669203  0.26651570     0.37970
C430        C  0.43073948  0.10241633  0.23210336     0.37960
C431        C  0.38461535  0.14676824  0.20314121     0.36380
C432        C  0.50786465  0.20736104  0.26470759     0.36380
N433        N  0.36339820  0.13537112  0.18361765    -0.38440
N434        N  0.53204674  0.22052464  0.27889488    -0.38440
N435        N  0.41995155  0.07364572  0.23002767    -0.37880
N436        N  0.44950705  0.27424714  0.28015860    -0.37880
C437        C  0.04446407  0.14587179  0.24415748    -0.04550
C438        C  0.05678892  0.17033067  0.21873220    -0.01670
C439        C  0.09070120  0.18660931  0.22097654     0.03320
C440        C  0.11566801  0.17829621  0.24770675    -0.04550
C441        C  0.10472237  0.15353741  0.27269286    -0.01650
C442        C  0.07044198  0.13698973  0.27091245     0.03320
C443        C  0.03466807  0.18072529  0.18957910     0.37970
C444        C  0.13016461  0.14222983  0.29848630     0.37960
C445        C  0.06612559  0.10706252  0.29377929     0.36380
C446        C  0.09935773  0.21152712  0.19358221     0.36380
N447        N  0.06529140  0.08270473  0.31163268    -0.38440
N448        N  0.10442365  0.22965109  0.16987622    -0.38440
N449        N  0.15023520  0.13259612  0.31888542    -0.37880
N450        N  0.01997187  0.19190181  0.16562541    -0.37880
C451        C  0.50565363  0.12795678  0.73923854    -0.01700
O452        O  0.47112803  0.05495197  0.90025198    -0.85700
O453        O  0.13007654  0.47269707  0.95695933    -0.85870
O454        O  0.07597285  0.08067258  0.93098304    -0.87540
O455        O  0.04231027  0.47863809  0.86500915    -0.86290
O456        O  0.00994365  0.42960402  0.88034545    -0.85880
O457        O  0.08261135  0.09158266  0.99079114    -0.87250
O458        O  0.11191488  0.50496284  0.91114147    -0.85730
O459        O  0.02565975  0.04820910  0.87695403    -0.85320
Zr460      Zr  0.05240756  0.01763844  0.92053077     2.84310
O461        O  0.05146052  0.45935443  0.93832977    -1.07290
O462        O  0.01935808  0.05285638  0.95898297    -1.08020
C463        C  0.99461369  0.05821927  0.87542583     1.07410
C464        C  0.13607282  0.48956424  0.92753777     1.07350
C465        C  0.08493005  0.10081187  0.95861668     1.10330
C466        C  0.02585393  0.44853687  0.85720805     1.08110
H467        H  0.09968788  0.02941993  0.97694161     0.33670
O468        O  0.07615189  0.01960442  0.97746187    -1.28250
H469        H  0.48473824  0.49344675  0.89901019     0.33340
O470        O  0.99503681  0.49419894  0.92249865    -1.29920
O471        O  0.07400239  0.43659645  0.55566020    -0.85700
O472        O  0.41277740  0.02628502  0.00307584    -0.87190
O473        O  0.09998962  0.04396198  0.54758034    -0.85770
O474        O  0.03072253  0.38464392  0.94868572    -0.85820
O475        O  0.43561125  0.44645583  0.91080883    -0.85530
O476        O  0.00320846  0.10499985  0.50763323    -0.85340
O477        O  0.49185749  0.01258679  0.59193747    -0.85710
O478        O  0.45592025  0.40922655  0.52959312    -0.85170
O479        O  0.02692361  0.06057111  0.57823332    -0.86240
O480        O  0.45829583  0.39266510  0.97048413    -0.85390
O481        O  0.11916883  0.49011376  0.52970733    -0.85790
O482        O  0.45411359  0.08833491  0.97627811    -0.85510
O483        O  0.41776557  0.50064885  0.92872564    -0.85170
O484        O  0.08397471  0.40562803  0.96857800    -0.85570
O485        O  0.02019631  0.44437473  0.58040396    -0.85870
O486        O  0.42484978  0.48771081  0.54671279    -0.87210
Zr487      Zr  0.07608178  0.46178870  0.99498667     2.83100
Zr488      Zr  0.46279170  0.02889481  0.96092257     2.83500
Zr489      Zr  0.04212411  0.05265161  0.51695633     2.84090
Zr490      Zr  0.99348405  0.43658991  0.94172841     2.83360
Zr491      Zr  0.48440708  0.47102931  0.53788835     2.84220
O492        O  0.46038068  0.47097842  0.98044225    -1.07780
O493        O  0.04168918  0.49431935  0.53396267    -1.07280
C494        C  0.05184467  0.43474590  0.58155395     1.07380
C495        C  0.40465307  0.00940796  0.53174285     1.10000
C496        C  0.12263102  0.01904854  0.54713357     1.07550
C497        C  0.06278498  0.38051851  0.95904350     1.07910
C498        C  0.41402099  0.47232775  0.91030811     1.07500
C499        C  0.47374303  0.11184940  0.99181560     1.07050
C500        C  0.00837687  0.04262264  0.60003746     1.07470
C501        C  0.44961771  0.38699504  0.50275562     1.06990
H502        H  0.47129752  0.04388655  0.53398239     0.33660
O503        O  0.48507421  0.02928350  0.51866680    -1.28880
H504        H  0.02000807  0.41412341  0.50805105     0.33690
O505        O  0.01883202  0.43758212  0.99900842    -1.30260
C506        C  0.26448711  0.01513002  0.60286750    -0.01700
O507        O  0.17471444  0.19890975  0.77269233    -0.85700
O508        O  0.25265225  0.27463485  0.60981403    -0.85870
O509        O  0.15529542  0.27365027  0.69722531    -0.87540
O510        O  0.20962204  0.17533190  0.66028717    -0.86290
O511        O  0.26293239  0.15475770  0.67644199    -0.85880
O512        O  0.16999638  0.32393642  0.72919563    -0.87250
O513        O  0.20137168  0.24716810  0.62550898    -0.85730
O514        O  0.16253024  0.19797055  0.71321504    -0.85320
Zr515      Zr  0.20566390  0.23481724  0.68756190     2.84310
O516        O  0.26288401  0.23316562  0.66732548    -1.07290
O517        O  0.20518775  0.25801033  0.74514673    -1.08020
C518        C  0.15363066  0.19242216  0.74518859     1.07410
C519        C  0.22261526  0.25892287  0.60202668     1.07350
C520        C  0.14788849  0.30325655  0.71294918     1.10330
C521        C  0.23331659  0.15188122  0.66063015     1.08110
H522        H  0.21463247  0.30668394  0.67011868     0.33670
O523        O  0.22838449  0.29259035  0.68557848    -1.28250
H524        H  0.22735765  0.17632061  0.72643228     0.33340
O525        O  0.23772816  0.19974139  0.72538694    -1.29920
O526        O  0.34528026  0.31981560  0.67197651    -0.85700
O527        O  0.28019730  0.22480373  0.83384632    -0.87190
O528        O  0.24202446  0.36917604  0.70757387    -0.85770
O529        O  0.32055821  0.20389459  0.64500060    -0.85820
O530        O  0.29174869  0.14827950  0.74799732    -0.85530
O531        O  0.19944947  0.30829467  0.80296422    -0.85340
O532        O  0.31333727  0.34144438  0.79371548    -0.85710
O533        O  0.37400303  0.24649932  0.75721932    -0.85170
O534        O  0.25898475  0.35775548  0.77724555    -0.86240
O535        O  0.35383040  0.19916588  0.72504925    -0.85390
O536        O  0.27297383  0.35148932  0.65943260    -0.85790
O537        O  0.20983676  0.25443482  0.82647209    -0.85510
O538        O  0.25175074  0.16239169  0.78950591    -0.85170
O539        O  0.33425551  0.26170734  0.64139874    -0.85570
O540        O  0.36327452  0.31584416  0.73024151    -0.85870
O541        O  0.32528453  0.26404708  0.82308299    -0.87210
Zr542      Zr  0.28633804  0.29078499  0.66657222     2.83100
Zr543      Zr  0.23803339  0.22306244  0.78229354     2.83500
Zr544      Zr  0.22917524  0.31508432  0.74390931     2.84090
Zr545      Zr  0.29526760  0.19964285  0.70650969     2.83360
Zr546      Zr  0.32015948  0.28259874  0.76294457     2.84220
O547        O  0.29607473  0.22447645  0.76357854    -1.07780
O548        O  0.28655121  0.31538536  0.72416664    -1.07280
C549        C  0.36793437  0.32444495  0.69773100     1.07380
C550        C  0.30935507  0.24166963  0.84279805     1.10000
C551        C  0.25896459  0.37566289  0.67830235     1.07550
C552        C  0.33231581  0.23108726  0.62769302     1.07910
C553        C  0.27325044  0.14083534  0.77603918     1.07500
C554        C  0.19688934  0.28476162  0.82761470     1.07050
C555        C  0.28754154  0.36290828  0.79400533     1.07470
C556        C  0.37842677  0.21621241  0.74123992     1.06990
H557        H  0.26260578  0.29130937  0.80582693     0.33660
O558        O  0.26224045  0.28118112  0.78208487    -1.28880
H559        H  0.34193090  0.25653198  0.69985756     0.33690
O560        O  0.31781457  0.25720637  0.70644885    -1.30260
C561        C  0.14017565  0.24939325  0.96523993    -0.01700
C562        C  0.01495244  0.37268133  0.71222268    -0.01700
C563        C  0.38629676  0.23957063  0.98283110    -0.01700
C564        C  0.27597091  0.50056393  0.85061527    -0.01700
C565        C  0.15565294  0.26102832  0.92773652    -0.04550
C566        C  0.14413014  0.24505725  0.89393010    -0.01670
C567        C  0.14827450  0.26359060  0.86209377     0.03320
C568        C  0.17543350  0.28887650  0.85958870    -0.04550
C569        C  0.18993595  0.30278538  0.89145671    -0.01650
C570        C  0.17398951  0.29455029  0.92393718     0.03320
C571        C  0.12749907  0.21050716  0.88868730     0.37970
C572        C  0.22418244  0.32010369  0.89205344     0.37960
C573        C  0.17793098  0.32117104  0.95202110     0.36380
C574        C  0.12901367  0.25232644  0.82999819     0.36380
N575        N  0.18240972  0.34327441  0.97339426    -0.38440
N576        N  0.11334232  0.24350680  0.80473191    -0.38440
N577        N  0.25212292  0.33261504  0.89288936    -0.37880
N578        N  0.11381924  0.18365428  0.88139061    -0.37880
C579        C  0.20999072  0.25211417  0.56395264    -0.04550
C580        C  0.21798227  0.27337337  0.53477539    -0.01670
C581        C  0.20213331  0.26531156  0.50086487     0.03320
C582        C  0.16797528  0.24810479  0.49832591    -0.04550
C583        C  0.15978995  0.22872938  0.52995721    -0.01650
C584        C  0.18479655  0.22490290  0.55705978     0.03320
C585        C  0.23823152  0.30582715  0.53975193     0.37970
C586        C  0.12513221  0.21841598  0.54109604     0.37960
C587        C  0.18198144  0.19400738  0.57885616     0.36380
C588        C  0.22527049  0.26798636  0.97126103     0.36380
N589        N  0.17840441  0.16842161  0.59456186    -0.38440
N590        N  0.24518684  0.27080694  0.94863917    -0.38440
N591        N  0.09948578  0.21024982  0.55510913    -0.37880
N592        N  0.25302713  0.33269809  0.54355370    -0.37880
C593        C  0.32748986  0.23603481  0.87816409    -0.04550
C594        C  0.36385829  0.24170454  0.88095628    -0.01670
C595        C  0.38123144  0.24580244  0.91403414     0.03320
C596        C  0.36392082  0.23786175  0.94660905    -0.04550
C597        C  0.32753284  0.22587929  0.94264499    -0.01650
C598        C  0.30978647  0.22655496  0.90904261     0.03320
C599        C  0.38461513  0.23848016  0.84942967     0.37970
C600        C  0.30786957  0.20960949  0.97089012     0.37960
C601        C  0.27344664  0.21558446  0.90521335     0.36380
C602        C  0.41765076  0.25721475  0.91264978     0.36380
N603        N  0.24445914  0.20767872  0.89990279    -0.38440
N604        N  0.44604587  0.26699179  0.90765905    -0.38440
N605        N  0.29099588  0.19646451  0.99254063    -0.37880
N606        N  0.40166503  0.23460123  0.82477119    -0.37880
C607        C  0.34177382  0.22995777  0.58920879    -0.04550
C608        C  0.33468138  0.25930753  0.56775081    -0.01670
C609        C  0.34204538  0.25891042  0.53143109     0.03320
C610        C  0.36234681  0.23237864  0.51632960    -0.04550
C611        C  0.36201642  0.20015969  0.53578139    -0.01650
C612        C  0.35582078  0.20044679  0.57266127     0.03320
C613        C  0.32059336  0.29137803  0.58222325     0.37970
C614        C  0.36410236  0.16594909  0.51821705     0.37960
C615        C  0.36878238  0.17252372  0.59388932     0.36380
C616        C  0.32092354  0.28064993  0.50961069     0.36380
N617        N  0.38092936  0.15102732  0.61074068    -0.38440
N618        N  0.30204067  0.29792166  0.49420997    -0.38440
N619        N  0.36503643  0.13813384  0.50522816    -0.37880
N620        N  0.30990993  0.31740889  0.59321338    -0.37880
C621        C  0.27183531  0.47081035  0.81996583    -0.04550
C622        C  0.24545041  0.44415982  0.82282226    -0.01670
C623        C  0.25404628  0.40885917  0.82370368     0.03320
C624        C  0.28746638  0.39777344  0.81251264    -0.04550
C625        C  0.31203358  0.42408457  0.80306959    -0.01650
C626        C  0.30136585  0.45923271  0.80067449     0.03320
C627        C  0.20923449  0.45040713  0.81498505     0.37970
C628        C  0.34565832  0.41458275  0.78928468     0.37960
C629        C  0.30596008  0.47241117  0.76541302     0.36380
C630        C  0.22613764  0.38442204  0.83369355     0.36380
N631        N  0.31134002  0.48165201  0.73693125    -0.38440
N632        N  0.20105004  0.36887624  0.84138365    -0.38440
N633        N  0.37266996  0.40711656  0.77863440    -0.37880
N634        N  0.17994726  0.45281823  0.80818863    -0.37880
C635        C  0.27658434  0.10601779  0.79593309    -0.04550
C636        C  0.26026851  0.10092810  0.82960511    -0.01670
C637        C  0.26451982  0.06980487  0.84911036     0.03320
C638        C  0.28075530  0.03957925  0.83386828    -0.04550
C639        C  0.30296896  0.04810258  0.80463366    -0.01650
C640        C  0.29828570  0.07877509  0.78420853     0.03320
C641        C  0.23780488  0.12694292  0.84518902     0.37970
C642        C  0.33613256  0.03159264  0.80020851     0.37960
C643        C  0.31646103  0.08148095  0.75089526     0.36380
C644        C  0.25456940  0.07087168  0.88639191     0.36380
N645        N  0.33087796  0.08230012  0.72412750    -0.38440
N646        N  0.24711307  0.07241754  0.91608699    -0.38440
N647        N  0.36307482  0.01963183  0.79534530    -0.37880
N648        N  0.21935032  0.14696474  0.85788947    -0.37880
C649        C  0.40409262  0.33732758  0.69044049    -0.04550
C650        C  0.41352348  0.37312003  0.69395578    -0.01670
C651        C  0.44897649  0.38410299  0.69932288     0.03320
C652        C  0.47586260  0.35901692  0.70463396    -0.04550
C653        C  0.46481644  0.32257246  0.70184627    -0.01650
C654        C  0.43034720  0.31256902  0.69128818     0.03320
C655        C  0.38636228  0.39873728  0.69348142     0.37970
C656        C  0.48669884  0.29440186  0.71231964     0.37960
C657        C  0.42148210  0.27615714  0.68152170     0.36380
C658        C  0.45637464  0.42162700  0.70237244     0.36380
N659        N  0.41478164  0.24736520  0.67270222    -0.38440
N660        N  0.46010616  0.45186867  0.70474969    -0.38440
N661        N  0.50423266  0.27147021  0.71964898    -0.37880
N662        N  0.36490187  0.41936360  0.69337043    -0.37880
C663        C  0.11114430  0.31450104  0.71328103    -0.04550
C664        C  0.09464335  0.32322742  0.74554062    -0.01670
C665        C  0.05953748  0.33302977  0.74561306     0.03320
C666        C  0.04267555  0.34198638  0.71338642    -0.04550
C667        C  0.05659178  0.32490887  0.68233898    -0.01650
C668        C  0.09150917  0.31480322  0.68181305     0.03320
C669        C  0.11394805  0.32546820  0.77875647     0.37970
C670        C  0.03432205  0.30723580  0.65559995     0.37960
C671        C  0.10708371  0.30441268  0.64856349     0.36380
C672        C  0.04039210  0.33030014  0.77849593     0.36380
N673        N  0.11959061  0.29532682  0.62231993    -0.38440
N674        N  0.02577327  0.32721185  0.80503016    -0.38440
N675        N  0.01773521  0.29127826  0.63454829    -0.37880
N676        N  0.12841220  0.32929613  0.80571624    -0.37880
C677        C  0.26635209  0.48001858  0.62677026    -0.04550
C678        C  0.28205449  0.44857823  0.61293388    -0.01670
C679        C  0.28531958  0.41853205  0.63381301     0.03320
C680        C  0.26379585  0.41287900  0.66367362    -0.04550
C681        C  0.24957287  0.44350371  0.67873541    -0.01650
C682        C  0.25635039  0.47718053  0.66347515     0.03320
C683        C  0.29466828  0.44463358  0.57675304     0.37970
C684        C  0.22969907  0.44119761  0.71097186     0.37960
C685        C  0.25813382  0.50707653  0.68804305     0.36380
C686        C  0.31463793  0.39643078  0.62653086     0.36380
N687        N  0.25933514  0.53038576  0.70840018    -0.38440
N688        N  0.33926865  0.38066888  0.62071705    -0.38440
N689        N  0.21326019  0.43917910  0.73641934    -0.37880
N690        N  0.30465537  0.43946844  0.54825884    -0.37880
C691        C  0.23045461  0.11946651  0.63919202    -0.04550
C692        C  0.21303099  0.08976174  0.65202176    -0.01670
C693        C  0.22394631  0.05588852  0.64173098     0.03320
C694        C  0.25735059  0.05103950  0.62420230    -0.04550
C695        C  0.27597124  0.08342216  0.61570846    -0.01650
C696        C  0.25868905  0.11529715  0.61681642     0.03320
C697        C  0.18324902  0.09436551  0.67496964     0.37970
C698        C  0.31131723  0.08636753  0.60281240     0.37960
C699        C  0.27142241  0.14561923  0.59719583     0.36380
C700        C  0.19949319  0.02703765  0.64901802     0.36380
N701        N  0.28034657  0.16964707  0.58093626    -0.38440
N702        N  0.17992648  0.00472672  0.65670790    -0.38440
N703        N  0.33927678  0.09035059  0.59201219    -0.37880
N704        N  0.15949366  0.09816719  0.69319940    -0.37880
C705        C  0.06043654  0.41817988  0.61542304    -0.04550
C706        C  0.06042378  0.43957179  0.64649830    -0.01670
C707        C  0.04210433  0.42892068  0.67731261     0.03320
C708        C  0.02471973  0.39499200  0.67792724    -0.04550
C709        C  0.02059242  0.37851740  0.64357521    -0.01650
C710        C  0.04542663  0.38483425  0.61762356     0.03320
C711        C  0.08299249  0.47057441  0.64822965     0.37970
C712        C  0.98795862  0.36210456  0.63090920     0.37960
C713        C  0.05404646  0.35768510  0.59221340     0.36380
C714        C  0.03743336  0.45580242  0.70443481     0.36380
N715        N  0.06264056  0.33479497  0.57400179    -0.38440
N716        N  0.03504714  0.47812719  0.72555651    -0.38440
N717        N  0.96216755  0.34944172  0.61958416    -0.37880
N718        N  0.10286270  0.99392618  0.65140069    -0.37880
C719        C  0.01761429  0.39460377  0.75010237    -0.04550
C720        C  0.04972676  0.41193670  0.76303047    -0.01670
C721        C  0.05157113  0.43210206  0.79581038     0.03320
C722        C  0.02306581  0.43321255  0.81914018    -0.04550
C723        C  0.99207751  0.41450159  0.80801049    -0.01650
C724        C  0.99000776  0.39404900  0.77595841     0.03320
C725        C  0.08191370  0.40891461  0.74327024     0.37970
C726        C  0.46100835  0.41523373  0.82985462     0.37960
C727        C  0.46100021  0.36839337  0.77454450     0.36380
C728        C  0.08314917  0.45199990  0.80560818     0.36380
N729        N  0.43719845  0.34887658  0.77536003    -0.38440
N730        N  0.10787724  0.46871113  0.81352179    -0.38440
N731        N  0.43527670  0.41451036  0.84557922    -0.37880
N732        N  0.10771648  0.40695166  0.72776770    -0.37880
C733        C  0.17238025  0.49321074  0.90996220    -0.04550
C734        C  0.20336985  0.48102544  0.92549174    -0.01450
C735        C  0.23684905  0.48729979  0.90954488     0.03320
C736        C  0.24029624  0.49930223  0.87372635    -0.04550
C737        C  0.20861908  0.51186091  0.85848176    -0.01650
C738        C  0.17659020  0.51123604  0.87712399     0.03320
C739        C  0.20124578  0.46231530  0.95853904     0.37970
C740        C  0.20792117  0.52540841  0.82240691     0.37960
C741        C  0.14843769  0.53058202  0.86145127     0.36380
C742        C  0.26705664  0.48321006  0.93192493     0.36380
N743        N  0.12651602  0.54639827  0.84873444    -0.38440
N744        N  0.29109420  0.47858821  0.94982580    -0.38440
N745        N  0.20678673  0.53577312  0.79376420    -0.37880
N746        N  0.19954750  0.44715302  0.48478548    -0.37880
C747        C  0.31057340  0.49106471  0.87188824    -0.04550
C748        C  0.33779881  0.01671556  0.87716666    -0.01670
C749        C  0.37241286  0.00691355  0.87682224     0.03320
C750        C  0.38174560  0.47323863  0.88766675    -0.04550
C751        C  0.35504989  0.44728298  0.88902871    -0.01650
C752        C  0.31985121  0.45555814  0.88073861     0.03320
C753        C  0.33207338  0.05326611  0.88656673     0.37970
C754        C  0.36395538  0.41218769  0.89900573     0.37960
C755        C  0.29359373  0.42878715  0.88867619     0.36380
C756        C  0.39804730  0.03349304  0.86686623     0.36380
N757        N  0.27370159  0.40754380  0.89816295    -0.38440
N758        N  0.41474878  0.05700694  0.85696594    -0.38440
N759        N  0.37159949  0.38414766  0.90638664    -0.37880
N760        N  0.33029602  0.08266766  0.89471802    -0.37880
C761        C  0.23086160  0.01344132  0.57741523    -0.04550
C762        C  0.20664562  0.48464871  0.57847261    -0.01670
C763        C  0.17077775  0.49014515  0.57779765     0.03320
C764        C  0.15728151  0.02182698  0.56518948    -0.04550
C765        C  0.18111486  0.04899025  0.55650792    -0.01650
C766        C  0.21743506  0.04492584  0.56171600     0.03320
C767        C  0.21674192  0.44857348  0.57351717     0.37970
C768        C  0.16842277  0.08071814  0.54084656     0.37960
C769        C  0.24044966  0.07228287  0.54778990     0.36380
C770        C  0.14827959  0.46128692  0.58917970     0.36380
N771        N  0.25801022  0.09365691  0.53481731    -0.38440
N772        N  0.13369868  0.43646678  0.59926062    -0.38440
N773        N  0.15845356  0.10607583  0.02844346    -0.37880
N774        N  0.22183643  0.41905331  0.56859344    -0.37880
C775        C  0.36961215  0.01454688  0.54940006    -0.04550
C776        C  0.33922938  0.02053790  0.52934303    -0.01670
C777        C  0.30558028  0.01820335  0.54488052     0.03320
C778        C  0.30121353  0.01710891  0.58272941    -0.04550
C779        C  0.33296662  0.01465192  0.60309034    -0.01650
C780        C  0.36587450  0.01123632  0.58664525     0.03320
C781        C  0.34235304  0.02843726  0.99209798     0.37970
C782        C  0.33279488  0.51720080  0.64159314     0.37960
C783        C  0.39610032  0.50534793  0.60908573     0.36380
C784        C  0.27644047  0.01317229  0.52068466     0.36380
N785        N  0.41975190  0.50031433  0.62738028    -0.38440
N786        N  0.25245530  0.00988895  0.50191332    -0.38440
N787        N  0.33453935  0.51954855  0.67222103    -0.37880
N788        N  0.34545649  0.03550312  0.96260254    -0.37880
C789        C  0.45993992  0.14871153  0.98862315    -0.04550
C790        C  0.44211442  0.15665544  0.95684106    -0.01670
C791        C  0.41603999  0.18179265  0.95633874     0.03320
C792        C  0.41446361  0.20885240  0.98340123    -0.04550
C793        C  0.43631681  0.20322774  0.51446115    -0.01650
C794        C  0.45669072  0.17251647  0.51758393     0.03320
C795        C  0.44582039  0.13551727  0.92473717     0.37970
C796        C  0.43599838  0.22740379  0.54494426     0.37960
C797        C  0.47193343  0.16422469  0.55156675     0.36380
C798        C  0.38708855  0.17226342  0.93229277     0.36380
N799        N  0.98380703  0.15768112  0.57888939    -0.38440
N800        N  0.36496339  0.16244814  0.91296953    -0.38440
N801        N  0.43590990  0.24646872  0.56935104    -0.37880
N802        N  0.44490888  0.11993484  0.89809515    -0.37880
C803        C  0.40460509  0.27935685  0.98702269    -0.04550
C804        C  0.38578448  0.31102830  0.98144390    -0.01670
C805        C  0.39781006  0.34463305  0.99528937     0.03320
C806        C  0.43258812  0.35056835  0.50679359    -0.04550
C807        C  0.45403934  0.32112297  0.50522998    -0.01650
C808        C  0.44112116  0.28692404  0.49376256     0.03320
C809        C  0.36043970  0.31242457  0.95270072     0.37970
C810        C  0.49099517  0.32696262  0.51127239     0.37960
C811        C  0.46698265  0.26327709  0.48049715     0.36380
C812        C  0.37535544  0.37448694  0.99346900     0.36380
N813        N  0.48724870  0.24483685  0.46829436    -0.38440
N814        N  0.35748052  0.39829967  0.99210328    -0.38440
N815        N  0.02065205  0.33148013  0.51527490    -0.37880
N816        N  0.34053719  0.31450432  0.92956435    -0.37880
C817        C  0.12417782  0.21027058  0.96274244    -0.04550
C818        C  0.08926682  0.20058611  0.97274170    -0.01670
C819        C  0.07905144  0.16478316  0.97455289     0.03320
C820        C  0.09722441  0.13843900  0.95577863    -0.04550
C821        C  0.13186433  0.14694611  0.94685250    -0.01650
C822        C  0.14622746  0.18129993  0.95449119     0.03320
C823        C  0.06634610  0.22518452  0.49024215     0.37970
C824        C  0.15368967  0.11952152  0.93308890     0.37960
C825        C  0.18375930  0.18525822  0.95677716     0.36380
C826        C  0.05950771  0.15562333  0.50592608     0.36380
N827        N  0.21362972  0.18640859  0.96129077    -0.38440
N828        N  0.04788674  0.15084844  0.53368099    -0.38440
N829        N  0.17092109  0.09754828  0.92202127    -0.37880
N830        N  0.04897705  0.24411580  0.50608131    -0.37880
C831        C  0.11172072  0.27886176  0.97018016    -0.04550
C832        C  0.08518254  0.28411923  0.94311368    -0.01670
C833        C  0.06843203  0.31656208  0.94003953     0.03320
C834        C  0.07728170  0.34478820  0.96321595    -0.04550
C835        C  0.10012703  0.33884034  0.99218047    -0.01650
C836        C  0.11455430  0.30577070  0.99722899     0.03320
C837        C  0.07169962  0.25599312  0.91964593     0.37970
C838        C  0.11133568  0.36731063  0.01666914     0.37960
C839        C  0.13360234  0.30234683  0.03018515     0.36380
C840        C  0.04296057  0.32125941  0.91183984     0.36380
N841        N  0.14880709  0.30288115  0.05684445    -0.38440
N842        N  0.02255916  0.32491005  0.88949752    -0.38440
N843        N  0.12235550  0.38912216  0.53594378    -0.37880
N844        N  0.05801949  0.23485252  0.90122265    -0.37880
C845        C  0.00593635  0.05995691  0.63662216    -0.04550
C846        C  0.47811855  0.08180216  0.64432693    -0.01670
C847        C  0.48138277  0.10794778  0.67217689     0.03320
C848        C  0.00614956  0.10503896  0.70160569    -0.04550
C849        C  0.03404074  0.08200982  0.69262847    -0.01650
C850        C  0.03590475  0.06534825  0.65843011     0.03320
C851        C  0.44922960  0.08242685  0.61906162     0.37970
C852        C  0.06221181  0.07444077  0.71666682     0.37960
C853        C  0.06997877  0.06193898  0.64269188     0.36380
C854        C  0.46406517  0.14013240  0.66422868     0.36380
N855        N  0.09710478  0.06197517  0.62948913    -0.38440
N856        N  0.45011333  0.16524733  0.65604567    -0.38440
N857        N  0.08587618  0.06580297  0.73321350    -0.37880
N858        N  0.42654501  0.08332868  0.59864440    -0.37880
C859        C  0.98797968  0.07550401  0.84196358    -0.04550
C860        C  0.98222900  0.05538120  0.81031308    -0.01670
C861        C  0.98918834  0.07027723  0.77673498     0.03320
C862        C  0.99589193  0.10744445  0.77434597    -0.04550
C863        C  0.49349558  0.12702032  0.80762612    -0.01650
C864        C  0.49870593  0.11057578  0.83939711     0.03320
C865        C  0.97004359  0.01911845  0.81244903     0.37970
C866        C  0.47010290  0.15537536  0.81347496     0.37960
C867        C  0.51450161  0.13064329  0.86912148     0.36380
C868        C  0.98654432  0.04704361  0.74586501     0.36380
N869        N  0.52735963  0.14669877  0.89254852    -0.38440
N870        N  0.98256597  0.02810896  0.72156450    -0.38440
N871        N  0.45026865  0.17638866  0.82113880    -0.37880
N872        N  0.95908613  0.99054669  0.81385468    -0.37880
C873        C  0.41268467  0.19710361  0.73969040    -0.04550
C874        C  0.44557203  0.21171904  0.75059893    -0.01670
C875        C  0.47653072  0.19155730  0.74822980     0.03320
C876        C  0.47438557  0.15448880  0.73849173    -0.04550
C877        C  0.43962567  0.13991162  0.73367015    -0.01650
C878        C  0.41192375  0.16157537  0.72696925     0.03320
C879        C  0.44755207  0.24668690  0.76651684     0.37970
C880        C  0.43073887  0.10241176  0.73209923     0.37960
C881        C  0.38461510  0.14676537  0.70313864     0.36380
C882        C  0.50786237  0.20735306  0.76471515     0.36380
N883        N  0.36339798  0.13536894  0.68361466    -0.38440
N884        N  0.53204334  0.22051520  0.77890576    -0.38440
N885        N  0.41995155  0.07364102  0.73002183    -0.37880
N886        N  0.44950640  0.27424218  0.78015940    -0.37880
C887        C  0.04446335  0.14586546  0.74415888    -0.04550
C888        C  0.05678685  0.17032831  0.71873743    -0.01670
C889        C  0.09069503  0.18661507  0.72098919     0.03320
C890        C  0.11566488  0.17829599  0.74771370    -0.04550
C891        C  0.10472305  0.15352806  0.77269256    -0.01650
C892        C  0.07044204  0.13698089  0.77091224     0.03320
C893        C  0.03466901  0.18071813  0.68957998     0.37970
C894        C  0.13016889  0.14221229  0.79847805     0.37960
C895        C  0.06612489  0.10705261  0.79377757     0.36380
C896        C  0.09934308  0.21154957  0.69360855     0.36380
N897        N  0.06528966  0.08269389  0.81162970    -0.38440
N898        N  0.10439721  0.22968659  0.66991071    -0.38440
N899        N  0.15024228  0.13257163  0.81887054    -0.37880
N900        N  0.01997679  0.19189080  0.66562176    -0.37880
C901        C  0.50565407  0.62796185  0.23923872    -0.01700
O902        O  0.47112918  0.55495157  0.40025171    -0.85700
O903        O  0.13007618  0.97269577  0.45695961    -0.85870
O904        O  0.07597340  0.58067248  0.43098355    -0.87540
O905        O  0.04230965  0.97863524  0.36500841    -0.86290
O906        O  0.00994250  0.92960162  0.38034497    -0.85880
O907        O  0.08261274  0.59158208  0.49079162    -0.87250
O908        O  0.11191424  0.00496065  0.41114123    -0.85730
O909        O  0.02566054  0.54820759  0.37695333    -0.85320
Zr910      Zr  0.05240853  0.51763844  0.42053129     2.84310
O911        O  0.05145976  0.95935272  0.43832942    -1.07290
O912        O  0.01935896  0.55285644  0.45898322    -1.08020
C913        C  0.99461462  0.55821825  0.37542522     1.07410
C914        C  0.13607234  0.98956269  0.42753792     1.07350
C915        C  0.08493091  0.60081151  0.45861721     1.10330
C916        C  0.02585312  0.94853398  0.35720741     1.08110
H917        H  0.09968913  0.52941959  0.47694187     0.33670
O918        O  0.07615309  0.51960421  0.47746220    -1.28250
H919        H  0.48473744  0.99344541  0.39900981     0.33340
O920        O  0.99503606  0.99419754  0.42249823    -1.29920
O921        O  0.07400159  0.93659576  0.05565971    -0.85700
O922        O  0.41277798  0.52628404  0.50307519    -0.87190
O923        O  0.09998986  0.54396292  0.04758129    -0.85770
O924        O  0.03072171  0.88464278  0.44868522    -0.85820
O925        O  0.43561056  0.94645497  0.41080832    -0.85530
O926        O  0.00320835  0.60500120  0.00763322    -0.85340
O927        O  0.49185725  0.51258925  0.09193797    -0.85710
O928        O  0.45591929  0.90922662  0.02959285    -0.85170
O929        O  0.02692354  0.56057349  0.07823399    -0.86240
O930        O  0.45829509  0.89266392  0.47048389    -0.85390
O931        O  0.11916768  0.99011466  0.02970723    -0.85790
O932        O  0.45411410  0.58833426  0.47627852    -0.85510
O933        O  0.41776483  0.00064765  0.42872617    -0.85170
O934        O  0.08397436  0.90562737  0.46857557    -0.85570
O935        O  0.02019572  0.94437424  0.08040384    -0.85870
O936        O  0.42484893  0.98771163  0.04671339    -0.87210
Zr937      Zr  0.07608123  0.96178705  0.49498632     2.83100
Zr938      Zr  0.46279263  0.52889451  0.46092246     2.83500
Zr939      Zr  0.04212427  0.55265317  0.01695710     2.84090
Zr940      Zr  0.99348320  0.93658857  0.44172796     2.83360
Zr941      Zr  0.48440613  0.97102915  0.03788821     2.84220
O942        O  0.46038002  0.97097702  0.48044210    -1.07780
O943        O  0.04168815  0.99431958  0.03396271    -1.07280
C944        C  0.05184406  0.93474518  0.08155362     1.07380
C945        C  0.40465309  0.50940827  0.03174212     1.10000
C946        C  0.12263134  0.51904949  0.04713446     1.07550
C947        C  0.06278444  0.88051767  0.45904212     1.07910
C948        C  0.41402027  0.97232688  0.41030813     1.07500
C949        C  0.47374377  0.61184897  0.49181531     1.07050
C950        C  0.00837659  0.54262526  0.10003814     1.07470
C951        C  0.44961684  0.88699529  0.00275524     1.06990
H952        H  0.47129743  0.54388804  0.03398244     0.33660
O953        O  0.48507431  0.52928506  0.01866696    -1.28880
H954        H  0.02000717  0.91412343  0.00805072     0.33690
O955        O  0.01883145  0.93758046  0.49900792    -1.30260
C956        C  0.26448772  0.51512913  0.10286745    -0.01700
O957        O  0.17471478  0.69891244  0.27268764    -0.85700
O958        O  0.25265173  0.77463644  0.10981256    -0.85870
O959        O  0.15529225  0.77364180  0.19722747    -0.87540
O960        O  0.20962478  0.67533179  0.16028432    -0.86290
O961        O  0.26293482  0.65475789  0.17644035    -0.85880
O962        O  0.16999225  0.82393019  0.22919503    -0.87250
O963        O  0.20137156  0.74716931  0.12550787    -0.85730
O964        O  0.16253841  0.69795979  0.21320909    -0.85320
Zr965      Zr  0.20566521  0.73481612  0.18755997     2.84310
O966        O  0.26288502  0.73316594  0.16732339    -1.07290
O967        O  0.20518771  0.75800949  0.24514460    -1.08020
C968        C  0.15363431  0.69241923  0.24518245     1.07410
C969        C  0.22261480  0.75892440  0.10202548     1.07350
C970        C  0.14788459  0.80324808  0.21295078     1.10330
C971        C  0.23331924  0.65188119  0.16062806     1.08110
H972        H  0.21463059  0.80668322  0.17011699     0.33670
O973        O  0.22838322  0.79259020  0.18557677    -1.28250
H974        H  0.22736004  0.67632016  0.22643061     0.33340
O975        O  0.23772977  0.69974127  0.22538536    -1.29920
O976        O  0.34527853  0.81981725  0.17197437    -0.85700
O977        O  0.28019762  0.72480426  0.33384457    -0.87190
O978        O  0.24202139  0.86917644  0.20757225    -0.85770
O979        O  0.32055899  0.70389602  0.14499922    -0.85820
O980        O  0.29174981  0.64828055  0.24799629    -0.85530
O981        O  0.19944780  0.80829392  0.30296278    -0.85340
O982        O  0.31333552  0.84144559  0.29371382    -0.85710
O983        O  0.37400276  0.74650259  0.25721838    -0.85170
O984        O  0.25898250  0.85775577  0.27724427    -0.86240
O985        O  0.35383115  0.69916905  0.22504799    -0.85390
O986        O  0.27297235  0.85149050  0.15943174    -0.85790
O987        O  0.20983670  0.75443422  0.32647032    -0.85510
O988        O  0.25175068  0.66239175  0.28950413    -0.85170
O989        O  0.33425482  0.76170908  0.14139715    -0.85570
O990        O  0.36327268  0.81584677  0.23023949    -0.85870
O991        O  0.32528387  0.76404881  0.32308153    -0.87210
Zr992      Zr  0.28633694  0.79078614  0.16657076     2.83100
Zr993      Zr  0.23803397  0.72306268  0.28229166     2.83500
Zr994      Zr  0.22917308  0.81508425  0.24390767     2.84090
Zr995      Zr  0.29526875  0.69964391  0.20650819     2.83360
Zr996      Zr  0.32015847  0.78260053  0.26294298     2.84220
O997        O  0.29607529  0.72447773  0.26357694    -1.07780
O998        O  0.28654922  0.81538630  0.22416517    -1.07280
C999        C  0.36793249  0.82444708  0.19772882     1.07380
C1000       C  0.30935501  0.74167076  0.34279643     1.10000
C1001       C  0.25896232  0.87566377  0.17830123     1.07550
C1002       C  0.33231582  0.73108891  0.12769154     1.07910
C1003       C  0.27325104  0.64083586  0.27603774     1.07500
C1004       C  0.19688844  0.78476064  0.32761312     1.07050
C1005       C  0.28753946  0.86290899  0.29400384     1.07470
C1006       C  0.37842699  0.71621581  0.24123905     1.06990
H1007       H  0.26260457  0.79131001  0.30582519     0.33660
O1008       O  0.26223943  0.78118184  0.28208309    -1.28880
H1009       H  0.34193048  0.75653431  0.19985607     0.33690
O1010       O  0.31781412  0.75720808  0.20644736    -1.30260
C1011       C  0.14017495  0.74939291  0.46523914    -0.01700
C1012       C  0.01495164  0.87267756  0.21222136    -0.01700
C1013       C  0.38629708  0.73956978  0.48282942    -0.01700
C1014       C  0.27597019  0.00056392  0.35061599    -0.01700
C1015       C  0.15565201  0.76102755  0.42773550    -0.04550
C1016       C  0.14412957  0.74505559  0.39392936    -0.01670
C1017       C  0.14827442  0.76358789  0.36209248     0.03320
C1018       C  0.17543266  0.78887466  0.35958725    -0.04550
C1019       C  0.18993472  0.80278435  0.39145508    -0.01650
C1020       C  0.17398837  0.79454955  0.42393566     0.03320
C1021       C  0.12749766  0.71050577  0.38868753     0.37970
C1022       C  0.22418105  0.82010302  0.39205160     0.37960
C1023       C  0.17793018  0.82117037  0.45201947     0.36380
C1024       C  0.12901466  0.75232202  0.32999675     0.36380
N1025       N  0.18240927  0.84327372  0.47339260    -0.38440
N1026       N  0.11334414  0.74350091  0.30473041    -0.38440
N1027       N  0.25212146  0.83261455  0.39288733    -0.37880
N1028       N  0.11381686  0.68365313  0.38139188    -0.37880
C1029       C  0.20998996  0.75211593  0.06395170    -0.04550
C1030       C  0.21798144  0.77337521  0.03477452    -0.01670
C1031       C  0.20213245  0.76531335  0.00086413     0.03320
C1032       C  0.16797446  0.74810663  0.99832542    -0.04550
C1033       C  0.15978898  0.72873151  0.02995684    -0.01650
C1034       C  0.18479571  0.72490469  0.05705904     0.03320
C1035       C  0.23823101  0.80582881  0.03975086     0.37970
C1036       C  0.12513108  0.71841924  0.04109625     0.37960
C1037       C  0.18198026  0.69400927  0.07885556     0.36380
C1038       C  0.22526950  0.76798533  0.47125919     0.36380
N1039       N  0.17840288  0.66842366  0.09456147    -0.38440
N1040       N  0.24518535  0.77080512  0.44863679    -0.38440
N1041       N  0.09948452  0.71025409  0.05510965    -0.37880
N1042       N  0.25302694  0.83269961  0.04355239    -0.37880
C1043       C  0.32749007  0.73603573  0.37816234    -0.04550
C1044       C  0.36385846  0.74170605  0.38095456    -0.01670
C1045       C  0.38123175  0.74580290  0.41403248     0.03320
C1046       C  0.36392128  0.73786123  0.44660724    -0.04550
C1047       C  0.32753352  0.72587819  0.44264293    -0.01650
C1048       C  0.30978701  0.72655453  0.40904067     0.03320
C1049       C  0.38461527  0.73848340  0.34942773     0.37970
C1050       C  0.30787077  0.70960688  0.47088756     0.37960
C1051       C  0.27344740  0.71558328  0.40521138     0.36380
C1052       C  0.41765100  0.75721544  0.41264828     0.36380
N1053       N  0.24446000  0.70767694  0.39990111    -0.38440
N1054       N  0.44604600  0.76699280  0.40765753    -0.38440
N1055       N  0.29099744  0.69646069  0.49253763    -0.37880
N1056       N  0.40166531  0.73460581  0.32476912    -0.37880
C1057       C  0.34177385  0.72995930  0.08920736    -0.04550
C1058       C  0.33468125  0.75930888  0.06774922    -0.01670
C1059       C  0.34204481  0.75891137  0.03142942     0.03320
C1060       C  0.36234610  0.73237947  0.01632802    -0.04550
C1061       C  0.36201577  0.70016064  0.03578000    -0.01650
C1062       C  0.35582046  0.70044806  0.07265994     0.03320
C1063       C  0.32059329  0.79137947  0.08222149     0.37970
C1064       C  0.36410159  0.66594997  0.01821579     0.37960
C1065       C  0.36878139  0.67252476  0.09388816     0.36380
C1066       C  0.32092268  0.78065058  0.00960901     0.36380
N1067       N  0.38092754  0.65102827  0.11074004    -0.38440
N1068       N  0.30203970  0.79792219  0.99420828    -0.38440
N1069       N  0.36503558  0.63813470  0.00522692    -0.37880
N1070       N  0.30990985  0.81741036  0.09321153    -0.37880
C1071       C  0.27183407  0.97081072  0.31996626    -0.04550
C1072       C  0.24544902  0.94416025  0.32282256    -0.01670
C1073       C  0.25404460  0.90885951  0.32370301     0.03320
C1074       C  0.28746445  0.89777394  0.31251133    -0.04550
C1075       C  0.31203177  0.92408505  0.30306853    -0.01650
C1076       C  0.30136431  0.95923332  0.30067437     0.03320
C1077       C  0.20923318  0.95040774  0.31498544     0.37970
C1078       C  0.34565626  0.91458331  0.28928291     0.37960
C1079       C  0.30595849  0.97241269  0.26541327     0.36380
C1080       C  0.22613591  0.88442215  0.33369241     0.36380
N1081       N  0.31133849  0.98165423  0.23693176    -0.38440
N1082       N  0.20104842  0.86887590  0.34138201    -0.38440
N1083       N  0.37266770  0.90711725  0.27863201    -0.37880
N1084       N  0.17994600  0.95281898  0.30818897    -0.37880
C1085       C  0.27658506  0.60601819  0.29593158    -0.04550
C1086       C  0.26026969  0.60092845  0.32960385    -0.01670
C1087       C  0.26452106  0.56980511  0.34910901     0.03320
C1088       C  0.28075635  0.53957952  0.33386674    -0.04550
C1089       C  0.30296943  0.54810276  0.30463163    -0.01650
C1090       C  0.29828586  0.57877525  0.28420652     0.03320
C1091       C  0.23780616  0.62694318  0.34518795     0.37970
C1092       C  0.33613307  0.53159308  0.30020617     0.37960
C1093       C  0.31645987  0.58148063  0.25089247     0.36380
C1094       C  0.25457065  0.57087161  0.38639054     0.36380
N1095       N  0.33087551  0.58229941  0.22412398    -0.38440
N1096       N  0.24711425  0.57241719  0.41608561    -0.38440
N1097       N  0.36307549  0.51963262  0.29534291    -0.37880
N1098       N  0.21935154  0.64696480  0.35788858    -0.37880
C1099       C  0.40409081  0.83732861  0.19043775    -0.04550
C1100       C  0.41352302  0.87312066  0.19395329    -0.01670
C1101       C  0.44897641  0.88410215  0.19932047     0.03320
C1102       C  0.47586142  0.85901490  0.20463157    -0.04550
C1103       C  0.46481385  0.82257088  0.20184246    -0.01650
C1104       C  0.43034430  0.81256898  0.19128440     0.03320
C1105       C  0.38636284  0.89873900  0.19347897     0.37970
C1106       C  0.48669549  0.79439885  0.21231282     0.37960
C1107       C  0.42147768  0.77615753  0.18151717     0.36380
C1108       C  0.45637593  0.92162587  0.20237015     0.36380
N1109       N  0.41477620  0.74736590  0.17269732    -0.38440
N1110       N  0.46010827  0.95186745  0.20474734    -0.38440
N1111       N  0.50422893  0.77146599  0.21963901    -0.37880
N1112       N  0.36490326  0.91936619  0.19336791    -0.37880
C1113       C  0.11114008  0.81449102  0.21328241    -0.04550
C1114       C  0.09463891  0.82321940  0.24554128    -0.01670
C1115       C  0.05953355  0.83302328  0.24561241     0.03320
C1116       C  0.04267343  0.84198119  0.21338519    -0.04550
C1117       C  0.05658958  0.82490232  0.18233806    -0.01650
C1118       C  0.09150565  0.81479222  0.18181399     0.03320
C1119       C  0.11394305  0.82546124  0.27875743     0.37970
C1120       C  0.03432022  0.80723298  0.15559631     0.37960
C1121       C  0.10708057  0.80439902  0.14856527     0.36380
C1122       C  0.04038667  0.83029388  0.27849441     0.36380
N1123       N  0.11958804  0.79531260  0.12232214    -0.38440
N1124       N  0.02576649  0.82720568  0.30502788    -0.38440
N1125       N  0.01773395  0.79127770  0.13454250    -0.37880
N1126       N  0.12840675  0.82929023  0.30571736    -0.37880
C1127       C  0.26635074  0.98002035  0.12677039    -0.04550
C1128       C  0.28205314  0.94858016  0.11293372    -0.01670
C1129       C  0.28531766  0.91853348  0.13381232     0.03320
C1130       C  0.26379375  0.91288012  0.16367281    -0.04550
C1131       C  0.24957126  0.94350485  0.17873513    -0.01650
C1132       C  0.25634893  0.97718186  0.16347523     0.03320
C1133       C  0.29466759  0.94463629  0.07675302     0.37970
C1134       C  0.22969819  0.94119856  0.21097203     0.37960
C1135       C  0.25813225  0.00707770  0.18804338     0.36380
C1136       C  0.31463599  0.89643225  0.12653007     0.36380
N1137       N  0.25933354  0.03038685  0.20840061    -0.38440
N1138       N  0.33926677  0.88067048  0.12071616    -0.38440
N1139       N  0.21326000  0.93917992  0.23641997    -0.37880
N1140       N  0.30465511  0.93947187  0.04825887    -0.37880
C1141       C  0.23045702  0.61946621  0.13919066    -0.04550
C1142       C  0.21303311  0.58976196  0.15202115    -0.01670
C1143       C  0.22394799  0.55588843  0.14173106     0.03320
C1144       C  0.25735208  0.55103875  0.12420222    -0.04550
C1145       C  0.27597316  0.58342106  0.11570790    -0.01650
C1146       C  0.25869134  0.61529621  0.11681520     0.03320
C1147       C  0.18325123  0.59436660  0.17496894     0.37970
C1148       C  0.31131934  0.58636604  0.10281232     0.37960
C1149       C  0.27142486  0.64561779  0.09719395     0.36380
C1150       C  0.19949438  0.52703808  0.14901852     0.36380
N1151       N  0.28034899  0.66964527  0.08093386    -0.38440
N1152       N  0.17992723  0.50472765  0.15670872    -0.38440
N1153       N  0.33927907  0.59034885  0.09201249    -0.37880
N1154       N  0.15949593  0.59816898  0.19319863    -0.37880
C1155       C  0.06043635  0.91817873  0.11542248    -0.04550
C1156       C  0.06042359  0.93956985  0.14649828    -0.01670
C1157       C  0.04210504  0.92891746  0.17731275     0.03320
C1158       C  0.02472067  0.89498853  0.17792658    -0.04550
C1159       C  0.02059362  0.87851473  0.14357417    -0.01650
C1160       C  0.04542765  0.88483260  0.11762261     0.03320
C1161       C  0.08299190  0.97057272  0.14823017     0.37970
C1162       C  0.98795939  0.86210357  0.13090719     0.37960
C1163       C  0.05404827  0.85768410  0.09221206     0.36380
C1164       C  0.03743470  0.95579838  0.20443594     0.36380
N1165       N  0.06264305  0.83479462  0.07399996    -0.38440
N1166       N  0.03504874  0.97812270  0.22555820    -0.38440
N1167       N  0.96216806  0.84944192  0.11958146    -0.37880
N1168       N  0.10286227  0.49392944  0.15140010    -0.37880
C1169       C  0.01761352  0.89459960  0.25010157    -0.04550
C1170       C  0.04972636  0.91193121  0.26303046    -0.01670
C1171       C  0.05157069  0.93209720  0.29581010     0.03320
C1172       C  0.02306513  0.93320892  0.31913955    -0.04550
C1173       C  0.99207659  0.91449843  0.30800959    -0.01650
C1174       C  0.99000640  0.89404624  0.27595707     0.03320
C1175       C  0.08191348  0.90890769  0.24327087     0.37970
C1176       C  0.46100758  0.91523083  0.32985395     0.37960
C1177       C  0.46099701  0.86839289  0.27454175     0.36380
C1178       C  0.08314874  0.95199497  0.30560782     0.36380
N1179       N  0.43719356  0.84887814  0.27535613    -0.38440
N1180       N  0.10787657  0.96870652  0.31352153    -0.38440
N1181       N  0.43527615  0.91450774  0.34557894    -0.37880
N1182       N  0.10771640  0.90694342  0.22776879    -0.37880
C1183       C  0.17237979  0.99320979  0.40996268    -0.04550
C1184       C  0.20336947  0.98102500  0.42549249    -0.01450
C1185       C  0.23684864  0.98729937  0.40954562     0.03320
C1186       C  0.24029573  0.99930214  0.37372719    -0.04550
C1187       C  0.20861860  0.01186086  0.35848262    -0.01650
C1188       C  0.17658960  0.01123521  0.37712453     0.03320
C1189       C  0.20124552  0.96231539  0.45854010     0.37970
C1190       C  0.20792073  0.02540876  0.32240790     0.37960
C1191       C  0.14843668  0.03058025  0.36145132     0.36380
C1192       C  0.26705627  0.98320898  0.43192548     0.36380
N1193       N  0.12651464  0.04639568  0.34873407    -0.38440
N1194       N  0.29109370  0.97858659  0.44982638    -0.38440
N1195       N  0.20678630  0.03577373  0.29376529    -0.37880
N1196       N  0.19954669  0.94715776  0.98478957    -0.37880
C1197       C  0.31057268  0.99106433  0.37188867    -0.04550
C1198       C  0.33780030  0.51671549  0.37716472    -0.01670
C1199       C  0.37241426  0.50691309  0.37682067     0.03320
C1200       C  0.38174487  0.97323813  0.38766687    -0.04550
C1201       C  0.35504918  0.94728240  0.38902841    -0.01650
C1202       C  0.31985051  0.95555762  0.38073839     0.03320
C1203       C  0.33207518  0.55326612  0.38656466     0.37970
C1204       C  0.36395468  0.91218705  0.39900522     0.37960
C1205       C  0.29359302  0.92878651  0.38867554     0.36380
C1206       C  0.39804898  0.53349196  0.36686397     0.36380
N1207       N  0.27370085  0.90754301  0.39816196    -0.38440
N1208       N  0.41475086  0.55700526  0.35696300    -0.38440
N1209       N  0.37159884  0.88414701  0.40638606    -0.37880
N1210       N  0.33029786  0.58266769  0.39471590    -0.37880
C1211       C  0.23086190  0.51344087  0.07741559    -0.04550
C1212       C  0.20664496  0.98465056  0.07847202    -0.01670
C1213       C  0.17077703  0.99014654  0.07779706     0.03320
C1214       C  0.15728179  0.52182762  0.06519057    -0.04550
C1215       C  0.18111548  0.54899053  0.05650879    -0.01650
C1216       C  0.21743567  0.54492551  0.06171636     0.03320
C1217       C  0.21674160  0.94857554  0.07351585     0.37970
C1218       C  0.16842369  0.58071865  0.04084763     0.37960
C1219       C  0.24045055  0.57228192  0.04778959     0.36380
C1220       C  0.14827915  0.96128798  0.08917889     0.36380
N1221       N  0.25801135  0.59365541  0.03481646    -0.38440
N1222       N  0.13369831  0.93646768  0.09925955    -0.38440
N1223       N  0.15845561  0.60607406  0.52844269    -0.37880
N1224       N  0.22183630  0.91905549  0.06859153    -0.37880
C1225       C  0.36961222  0.51454653  0.04939942    -0.04550
C1226       C  0.33922932  0.52053763  0.02934263    -0.01670
C1227       C  0.30558036  0.51820230  0.04488026     0.03320
C1228       C  0.30121390  0.51710766  0.08272912    -0.04550
C1229       C  0.33296704  0.51465039  0.10308986    -0.01650
C1230       C  0.36587476  0.51123504  0.08664456     0.03320
C1231       C  0.34235328  0.52843532  0.49209729     0.37970
C1232       C  0.33279370  0.01720200  0.14159384     0.37960
C1233       C  0.39609934  0.00534972  0.10908650     0.36380
C1234       C  0.27644039  0.51317054  0.02068475     0.36380
N1235       N  0.41975092  0.00031619  0.12738107    -0.38440
N1236       N  0.25245486  0.50988654  0.00191397    -0.38440
N1237       N  0.33453806  0.01954927  0.17222176    -0.37880
N1238       N  0.34545659  0.53550182  0.46260199    -0.37880
C1239       C  0.45994049  0.64871097  0.48862230    -0.04550
C1240       C  0.44211467  0.65665429  0.45684016    -0.01670
C1241       C  0.41604061  0.68179196  0.45633730     0.03320
C1242       C  0.41446408  0.70885173  0.48339970    -0.04550
C1243       C  0.43631608  0.70322878  0.01446022    -0.01650
C1244       C  0.45668995  0.67251754  0.01758339     0.03320
C1245       C  0.44581962  0.63551499  0.42473685     0.37970
C1246       C  0.43599748  0.72740501  0.04494319     0.37960
C1247       C  0.47193197  0.66422572  0.05156653     0.36380
C1248       C  0.38708975  0.67226359  0.43229029     0.36380
N1249       N  0.98380489  0.65768210  0.07888947    -0.38440
N1250       N  0.36496518  0.66244889  0.41296608    -0.38440
N1251       N  0.43590886  0.74647007  0.06934986    -0.37880
N1252       N  0.44490657  0.61993191  0.39809522    -0.37880
C1253       C  0.40460522  0.77935594  0.48702144    -0.04550
C1254       C  0.38578435  0.81102732  0.48144334    -0.01670
C1255       C  0.39780978  0.84463185  0.49528935     0.03320
C1256       C  0.43258735  0.85056866  0.00679302    -0.04550
C1257       C  0.45403871  0.82112339  0.00522913    -0.01650
C1258       C  0.44112060  0.78692460  0.99376129     0.03320
C1259       C  0.36043973  0.81242404  0.45270007     0.37970
C1260       C  0.49099455  0.82696306  0.01127177     0.37960
C1261       C  0.46698211  0.76327774  0.98049572     0.36380
C1262       C  0.37535503  0.87448569  0.49346950     0.36380
N1263       N  0.48724809  0.74483750  0.96829281    -0.38440
N1264       N  0.35748001  0.89829836  0.49210415    -0.38440
N1265       N  0.02065140  0.83148068  0.01527452    -0.37880
N1266       N  0.34053738  0.81450415  0.42956361    -0.37880
C1267       C  0.12417757  0.71027016  0.46274225    -0.04550
C1268       C  0.08926664  0.70058549  0.47274151    -0.01670
C1269       C  0.07905180  0.66478253  0.47455333     0.03320
C1270       C  0.09722498  0.63843853  0.45577916    -0.04550
C1271       C  0.13186482  0.64694576  0.44685296    -0.01650
C1272       C  0.14622760  0.68129971  0.45449132     0.03320
C1273       C  0.06634534  0.72518632  0.99024176     0.37970
C1274       C  0.15369034  0.61952125  0.43308945     0.37960
C1275       C  0.18375945  0.68525840  0.45677675     0.36380
C1276       C  0.05950694  0.65562533  0.00592672     0.36380
N1277       N  0.21362994  0.68640898  0.46128980    -0.38440
N1278       N  0.04788554  0.65085088  0.03368152    -0.38440
N1279       N  0.17092187  0.59754806  0.42202191    -0.37880
N1280       N  0.04897611  0.74411788  0.00608035    -0.37880
C1281       C  0.11172001  0.77886124  0.47017943    -0.04550
C1282       C  0.08518183  0.78411853  0.44311292    -0.01670
C1283       C  0.06843131  0.81656130  0.44003866     0.03320
C1284       C  0.07728128  0.84478757  0.46321473    -0.04550
C1285       C  0.10012695  0.83884009  0.49217904    -0.01650
C1286       C  0.11455377  0.80577039  0.49722811     0.03320
C1287       C  0.07169891  0.75599237  0.41964524     0.37970
C1288       C  0.11133648  0.86731082  0.51666682     0.37960
C1289       C  0.13360080  0.80234649  0.53018500     0.36380
C1290       C  0.04295969  0.82125846  0.41183905     0.36380
N1291       N  0.14880417  0.80288077  0.55684516    -0.38440
N1292       N  0.02255818  0.82490895  0.38949680    -0.38440
N1293       N  0.12235761  0.88912499  0.03594051    -0.37880
N1294       N  0.05801863  0.73485186  0.40122197    -0.37880
C1295       C  0.00593615  0.55995997  0.13662301    -0.04550
C1296       C  0.47811768  0.58180427  0.14432839    -0.01670
C1297       C  0.48138163  0.60795050  0.17217801     0.03320
C1298       C  0.00614949  0.60504344  0.20160607    -0.04550
C1299       C  0.03404117  0.58201498  0.19262856    -0.01650
C1300       C  0.03590486  0.56535259  0.15843046     0.03320
C1301       C  0.44922788  0.58242736  0.11906400     0.37970
C1302       C  0.06221277  0.57444725  0.21666683     0.37960
C1303       C  0.06997877  0.56194299  0.14269211     0.36380
C1304       C  0.46406309  0.64013447  0.16422963     0.36380
N1305       N  0.09710475  0.56197891  0.12948933    -0.38440
N1306       N  0.45011050  0.66524883  0.15604621    -0.38440
N1307       N  0.08587735  0.56581086  0.23321405    -0.37880
N1308       N  0.42654255  0.58332784  0.09864750    -0.37880
C1309       C  0.98798103  0.57550439  0.34196346    -0.04550
C1310       C  0.98223210  0.55538331  0.31031184    -0.01670
C1311       C  0.98919111  0.57028135  0.27673456     0.03320
C1312       C  0.99589373  0.60744909  0.27434679    -0.04550
C1313       C  0.49349857  0.62702306  0.30762867    -0.01650
C1314       C  0.49870496  0.61057676  0.33939974     0.03320
C1315       C  0.97004755  0.51912011  0.31244585     0.37970
C1316       C  0.47012573  0.65539464  0.31347832     0.37960
C1317       C  0.51450029  0.63064190  0.36912624     0.36380
C1318       C  0.98654580  0.54704878  0.24586378     0.36380
N1319       N  0.52735807  0.64669563  0.39255459    -0.38440
N1320       N  0.98256585  0.52811478  0.22156296    -0.38440
N1321       N  0.45030629  0.67642101  0.32114625    -0.37880
N1322       N  0.95909062  0.49054804  0.31384985    -0.37880
C1323       C  0.41268477  0.69710726  0.23969010    -0.04550
C1324       C  0.44557225  0.71172375  0.25059638    -0.01670
C1325       C  0.47653127  0.69156274  0.24822571     0.03320
C1326       C  0.47438573  0.65449320  0.23849217    -0.04550
C1327       C  0.43962587  0.63991535  0.23367301    -0.01650
C1328       C  0.41192378  0.66157839  0.22697104     0.03320
C1329       C  0.44755214  0.74669166  0.26651415     0.37970
C1330       C  0.43073905  0.60241551  0.23210458     0.37960
C1331       C  0.38461541  0.64676715  0.20314077     0.36380
C1332       C  0.50786452  0.70736096  0.26470590     0.36380
N1333       N  0.36339873  0.63537002  0.18361669    -0.38440
N1334       N  0.53204671  0.72052490  0.27889272    -0.38440
N1335       N  0.41995107  0.57364489  0.23002954    -0.37880
N1336       N  0.44950665  0.77424690  0.28015677    -0.37880
C1337       C  0.04446385  0.64587108  0.24415700    -0.04550
C1338       C  0.05678859  0.67032977  0.21873149    -0.01670
C1339       C  0.09070082  0.68660855  0.22097570     0.03320
C1340       C  0.11566781  0.67829551  0.24770574    -0.04550
C1341       C  0.10472242  0.65353654  0.27269178    -0.01650
C1342       C  0.07044199  0.63698895  0.27091170     0.03320
C1343       C  0.03466770  0.68072403  0.18957828     0.37970
C1344       C  0.13016499  0.64222850  0.29848462     0.37960
C1345       C  0.06612586  0.60706168  0.29377853     0.36380
C1346       C  0.09935711  0.71152641  0.19358137     0.36380
N1347       N  0.06529192  0.58270385  0.31163188    -0.38440
N1348       N  0.10442286  0.72965038  0.16987537    -0.38440
N1349       N  0.15023572  0.63259420  0.31888325    -0.37880
N1350       N  0.01997146  0.69190025  0.16562445    -0.37880
C1351       C  0.50565499  0.62796677  0.73923801    -0.01700
O1352       O  0.47112831  0.55495290  0.90025097    -0.85700
O1353       O  0.13007676  0.97269714  0.95696111    -0.85870
O1354       O  0.07597255  0.58067366  0.93098412    -0.87540
O1355       O  0.04231017  0.97863444  0.86500872    -0.86290
O1356       O  0.00994289  0.92960116  0.88034591    -0.85880
O1357       O  0.08261166  0.59158242  0.99079231    -0.87250
O1358       O  0.11191487  0.00496153  0.91114238    -0.85730
O1359       O  0.02565972  0.54820876  0.87695280    -0.85320
Zr1360     Zr  0.05240761  0.51763991  0.92053124     2.84310
O1361       O  0.05146044  0.95935338  0.93833021    -1.07290
O1362       O  0.01935752  0.55285757  0.95898294    -1.08020
C1363       C  0.99461385  0.55821960  0.87542452     1.07410
C1364       C  0.13607297  0.98956398  0.92753945     1.07350
C1365       C  0.08493005  0.60081223  0.95861807     1.10330
C1366       C  0.02585362  0.94853297  0.85720797     1.08110
H1367       H  0.09968795  0.52942043  0.97694191     0.33670
O1368       O  0.07615191  0.51960503  0.97746214    -1.28250
H1369       H  0.48473794  0.99344596  0.89901035     0.33340
O1370       O  0.99503656  0.99419826  0.92249878    -1.29920
O1371       O  0.07400075  0.93659379  0.55565882    -0.85700
O1372       O  0.41277656  0.52628465  0.00307461    -0.87190
O1373       O  0.09999143  0.54396219  0.54758157    -0.85770
O1374       O  0.03072235  0.88464373  0.94868672    -0.85820
O1375       O  0.43561126  0.94645593  0.91080918    -0.85530
O1376       O  0.00321015  0.60500067  0.50763375    -0.85340
O1377       O  0.49185848  0.51259059  0.59193866    -0.85710
O1378       O  0.45591885  0.90922510  0.52959179    -0.85170
O1379       O  0.02692551  0.56057415  0.57823434    -0.86240
O1380       O  0.45829543  0.89266515  0.97048499    -0.85390
O1381       O  0.11916712  0.99011358  0.52970620    -0.85790
O1382       O  0.45411228  0.58833476  0.97627803    -0.85510
O1383       O  0.41776525  0.00064822  0.92872791    -0.85170
O1384       O  0.08397478  0.90562799  0.96857812    -0.85570
O1385       O  0.02019488  0.94437212  0.58040302    -0.85870
O1386       O  0.42484825  0.98771092  0.54671302    -0.87210
Zr1387     Zr  0.07608173  0.96178839  0.99498723     2.83100
Zr1388     Zr  0.46279128  0.52889518  0.96092170     2.83500
Zr1389     Zr  0.04212595  0.55265270  0.51695736     2.84090
Zr1390     Zr  0.99348383  0.93658943  0.94172894     2.83360
Zr1391     Zr  0.48440541  0.97102748  0.53788712     2.84220
O1392       O  0.46038092  0.97097812  0.98044311    -1.07780
O1393       O  0.04168736  0.99431814  0.53396162    -1.07280
C1394       C  0.05184325  0.93474302  0.58155282     1.07380
C1395       C  0.40465448  0.50940753  0.53174257     1.10000
C1396       C  0.12263273  0.51904860  0.54713488     1.07550
C1397       C  0.06278490  0.88051844  0.95904411     1.07910
C1398       C  0.41402078  0.97232769  0.91030948     1.07500
C1399       C  0.47374192  0.61184950  0.99181479     1.07050
C1400       C  0.00837810  0.54262658  0.60003867     1.07470
C1401       C  0.44961659  0.88699387  0.50275414     1.06990
H1402       H  0.47129898  0.54388813  0.53398299     0.33660
O1403       O  0.48507583  0.52928501  0.51866763    -1.28880
H1404       H  0.02000664  0.91412195  0.50804946     0.33690
O1405       O  0.01883197  0.93758188  0.99900901    -1.30260
C1406       C  0.26448938  0.51512789  0.60286723    -0.01700
O1407       O  0.17471537  0.69891506  0.77268353    -0.85700
O1408       O  0.25265143  0.77463719  0.60981152    -0.85870
O1409       O  0.15528950  0.77363299  0.69723106    -0.87540
O1410       O  0.20962841  0.67533133  0.66028216    -0.86290
O1411       O  0.26293794  0.65475747  0.67643975    -0.85880
O1412       O  0.16998868  0.82392356  0.72919594    -0.87250
O1413       O  0.20137150  0.74717020  0.62550748    -0.85730
O1414       O  0.16254733  0.69794810  0.71320364    -0.85320
Zr1415     Zr  0.20566692  0.73481466  0.68755883     2.84310
O1416       O  0.26288643  0.73316579  0.66732219    -1.07290
O1417       O  0.20518807  0.75800829  0.74514334    -1.08020
C1418       C  0.15363841  0.69241587  0.74517680     1.07410
C1419       C  0.22261441  0.75892517  0.60202477     1.07350
C1420       C  0.14788120  0.80323925  0.71295397     1.10330
C1421       C  0.23332269  0.65188070  0.66062681     1.08110
H1422       H  0.21462914  0.80668220  0.67011642     0.33670
O1423       O  0.22838241  0.79258969  0.68557612    -1.28250
H1424       H  0.22736283  0.67631940  0.72642969     0.33340
O1425       O  0.23773178  0.69974083  0.72538460    -1.29920
O1426       O  0.34527746  0.81981832  0.67197321    -0.85700
O1427       O  0.28019815  0.72480505  0.83384378    -0.87190
O1428       O  0.24201861  0.86917669  0.70757239    -0.85770
O1429       O  0.32056061  0.70389694  0.64499904    -0.85820
O1430       O  0.29175119  0.64828126  0.74799626    -0.85530
O1431       O  0.19944685  0.80829224  0.80296271    -0.85340
O1432       O  0.31333480  0.84144640  0.79371287    -0.85710
O1433       O  0.37400323  0.74650577  0.75721834    -0.85170
O1434       O  0.25898144  0.85775599  0.77724350    -0.86240
O1435       O  0.35383222  0.69917211  0.72504811    -0.85390
O1436       O  0.27297080  0.85149121  0.65943252    -0.85790
O1437       O  0.20983714  0.75443259  0.82646975    -0.85510
O1438       O  0.25175029  0.66239134  0.78950277    -0.85170
O1439       O  0.33425446  0.76171043  0.64139606    -0.85570
O1440       O  0.36327134  0.81584909  0.73023854    -0.85870
O1441       O  0.32528348  0.76405072  0.82308098    -0.87210
Zr1442     Zr  0.28633619  0.79078679  0.66656999     2.83100
Zr1443     Zr  0.23803494  0.72306256  0.78229057     2.83500
Zr1444     Zr  0.22917148  0.81508376  0.74390724     2.84090
Zr1445     Zr  0.29527032  0.69964458  0.70650769     2.83360
Zr1446     Zr  0.32015799  0.78260187  0.76294218     2.84220
O1447       O  0.29607635  0.72447853  0.76357635    -1.07780
O1448       O  0.28654764  0.81538661  0.72416449    -1.07280
C1449       C  0.36793122  0.82444879  0.69772771     1.07380
C1450       C  0.30935498  0.74167242  0.84279588     1.10000
C1451       C  0.25896031  0.87566432  0.67830187     1.07550
C1452       C  0.33231662  0.73108991  0.62769105     1.07910
C1453       C  0.27325153  0.64083598  0.77603703     1.07500
C1454       C  0.19688820  0.78475867  0.82761288     1.07050
C1455       C  0.28753860  0.86290948  0.79400291     1.07470
C1456       C  0.37842777  0.71621907  0.74123915     1.06990
H1457       H  0.26260398  0.79131023  0.80582450     0.33660
O1458       O  0.26223899  0.78118215  0.78208236    -1.28880
H1459       H  0.34193047  0.75653619  0.69985522     0.33690
O1460       O  0.31781410  0.75720937  0.70644660    -1.30260
C1461       C  0.14017458  0.74939302  0.96524033    -0.01700
C1462       C  0.01495162  0.87267392  0.71222165    -0.01700
C1463       C  0.38629596  0.73957138  0.98282974    -0.01700
C1464       C  0.27597026  0.00056418  0.85061790    -0.01700
C1465       C  0.15565090  0.76102686  0.92773611    -0.04550
C1466       C  0.14412827  0.74505398  0.89393037    -0.01670
C1467       C  0.14827476  0.76358442  0.86209255     0.03320
C1468       C  0.17543250  0.78887177  0.85958718    -0.04550
C1469       C  0.18993400  0.80278251  0.89145479    -0.01650
C1470       C  0.17398735  0.79454860  0.92393541     0.03320
C1471       C  0.12749348  0.71050529  0.88868994     0.37970
C1472       C  0.22418009  0.82010170  0.89205125     0.37960
C1473       C  0.17792849  0.82117043  0.95201834     0.36380
C1474       C  0.12901642  0.75231667  0.82999650     0.36380
N1475       N  0.18240709  0.84327459  0.97339069    -0.38440
N1476       N  0.11334699  0.74349395  0.80472999    -0.38440
N1477       N  0.25212030  0.83261373  0.89288708    -0.37880
N1478       N  0.11381008  0.68365359  0.88139570    -0.37880
C1479       C  0.20998903  0.75211641  0.56395117    -0.04550
C1480       C  0.21798149  0.77337449  0.53477332    -0.01670
C1481       C  0.20213266  0.76531200  0.50086302     0.03320
C1482       C  0.16797412  0.74810659  0.49832465    -0.04550
C1483       C  0.15978768  0.72873242  0.52995635    -0.01650
C1484       C  0.18479384  0.72490577  0.55705917     0.03320
C1485       C  0.23823195  0.80582763  0.53974873     0.37970
C1486       C  0.12512933  0.71842126  0.54109528     0.37960
C1487       C  0.18197672  0.69401129  0.57885695     0.36380
C1488       C  0.22526937  0.76798826  0.97126061     0.36380
N1489       N  0.17839784  0.66842659  0.59456408    -0.38440
N1490       N  0.24518587  0.77080971  0.94863902    -0.38440
N1491       N  0.09948237  0.71025727  0.55510857    -0.37880
N1492       N  0.25302855  0.83269817  0.54354937    -0.37880
C1493       C  0.32748967  0.73603811  0.87816213    -0.04550
C1494       C  0.36385807  0.74170826  0.88095468    -0.01670
C1495       C  0.38123111  0.74580489  0.91403279     0.03320
C1496       C  0.36392029  0.73786341  0.94660743    -0.04550
C1497       C  0.32753224  0.72588137  0.94264289    -0.01650
C1498       C  0.30978602  0.72655805  0.90904049     0.03320
C1499       C  0.38461510  0.73848622  0.84942792     0.37970
C1500       C  0.30786884  0.70961078  0.97088747     0.37960
C1501       C  0.27344570  0.71558932  0.90521124     0.36380
C1502       C  0.41765059  0.75721674  0.91264901     0.36380
N1503       N  0.24445773  0.70768540  0.89990092    -0.38440
N1504       N  0.44604587  0.76699348  0.90765874    -0.38440
N1505       N  0.29099509  0.69646516  0.99253755    -0.37880
N1506       N  0.40166521  0.73460922  0.82476926    -0.37880
C1507       C  0.34177519  0.72995968  0.58920707    -0.04550
C1508       C  0.33468232  0.75930864  0.56774818    -0.01670
C1509       C  0.34204562  0.75891010  0.53142838     0.03320
C1510       C  0.36234737  0.73237819  0.51632779    -0.04550
C1511       C  0.36201746  0.70015984  0.53578049    -0.01650
C1512       C  0.35582185  0.70044803  0.57266039     0.03320
C1513       C  0.32059409  0.79137950  0.58221957     0.37970
C1514       C  0.36410392  0.66594887  0.51821700     0.37960
C1515       C  0.36878154  0.67252457  0.59388923     0.36380
C1516       C  0.32092274  0.78064786  0.50960720     0.36380
N1517       N  0.38092634  0.65102773  0.61074170    -0.38440
N1518       N  0.30203930  0.79791816  0.49420553    -0.38440
N1519       N  0.36503845  0.63813343  0.50522860    -0.37880
N1520       N  0.30991052  0.81741055  0.59320907    -0.37880
C1521       C  0.27183331  0.97081057  0.81996863    -0.04550
C1522       C  0.24544860  0.94415966  0.82282585    -0.01670
C1523       C  0.25404434  0.90885886  0.82370421     0.03320
C1524       C  0.28746377  0.89777403  0.81251097    -0.04550
C1525       C  0.31203063  0.92408556  0.80306816    -0.01650
C1526       C  0.30136294  0.95923383  0.80067546     0.03320
C1527       C  0.20923208  0.95040685  0.81499184     0.37970
C1528       C  0.34565485  0.91458447  0.78928137     0.37960
C1529       C  0.30595664  0.97241481  0.76541495     0.36380
C1530       C  0.22613602  0.88442066  0.83369283     0.36380
N1531       N  0.31133639  0.98165779  0.73693389    -0.38440
N1532       N  0.20104855  0.86887387  0.84138152    -0.38440
N1533       N  0.37266616  0.90711906  0.77862962    -0.37880
N1534       N  0.17994431  0.95281739  0.80819778    -0.37880
C1535       C  0.27658531  0.60601820  0.79593079    -0.04550
C1536       C  0.26027056  0.60092872  0.82960343    -0.01670
C1537       C  0.26452082  0.56980474  0.84910798     0.03320
C1538       C  0.28075568  0.53957900  0.83386544    -0.04550
C1539       C  0.30296849  0.54810210  0.80463004    -0.01650
C1540       C  0.29828504  0.57877470  0.78420506     0.03320
C1541       C  0.23780947  0.62694487  0.84518893     0.37970
C1542       C  0.33613218  0.53159260  0.80020448     0.37960
C1543       C  0.31645828  0.58147979  0.75089053     0.36380
C1544       C  0.25457019  0.57087087  0.88638947     0.36380
N1545       N  0.33087320  0.58229850  0.72412162    -0.38440
N1546       N  0.24711357  0.57241623  0.91608449    -0.38440
N1547       N  0.36307473  0.51963246  0.79534116    -0.37880
N1548       N  0.21935685  0.64696768  0.85789080    -0.37880
C1549       C  0.40408973  0.83732930  0.69043638    -0.04550
C1550       C  0.41352328  0.87312099  0.69395229    -0.01670
C1551       C  0.44897701  0.88410106  0.69931981     0.03320
C1552       C  0.47586095  0.85901272  0.70463114    -0.04550
C1553       C  0.46481198  0.82256912  0.70184095    -0.01650
C1554       C  0.43034221  0.81256867  0.69128253     0.03320
C1555       C  0.38636414  0.89874042  0.69347772     0.37970
C1556       C  0.48669272  0.79439580  0.71230909     0.37960
C1557       C  0.42147430  0.77615767  0.68151438     0.36380
C1558       C  0.45637795  0.92162447  0.70236951     0.36380
N1559       N  0.41477195  0.74736638  0.67269389    -0.38440
N1560       N  0.46011131  0.95186595  0.70474656    -0.38440
N1561       N  0.50422569  0.77146185  0.71963282    -0.37880
N1562       N  0.36490543  0.91936852  0.69336637    -0.37880
C1563       C  0.11113641  0.81448070  0.71328555    -0.04550
C1564       C  0.09463515  0.82321122  0.74554375    -0.01670
C1565       C  0.05953043  0.83301712  0.74561364     0.03320
C1566       C  0.04267203  0.84197611  0.71338581    -0.04550
C1567       C  0.05658793  0.82489562  0.68233908    -0.01650
C1568       C  0.09150270  0.81478119  0.68181672     0.03320
C1569       C  0.11393875  0.82545370  0.77876019     0.37970
C1570       C  0.03431880  0.80722940  0.65559514     0.37960
C1571       C  0.10707813  0.80438614  0.64856865     0.36380
C1572       C  0.04038218  0.83028839  0.77849488     0.36380
N1573       N  0.11958650  0.79530018  0.62232573    -0.38440
N1574       N  0.02576080  0.82720056  0.80502772    -0.38440
N1575       N  0.01773302  0.79127591  0.63453961    -0.37880
N1576       N  0.12840200  0.82928339  0.80572030    -0.37880
C1577       C  0.26634988  0.98002073  0.62677069    -0.04550
C1578       C  0.28205209  0.94858037  0.61293433    -0.01670
C1579       C  0.28531616  0.91853376  0.63381307     0.03320
C1580       C  0.26379228  0.91288078  0.66367365    -0.04550
C1581       C  0.24957115  0.94350601  0.67873651    -0.01650
C1582       C  0.25634861  0.97718283  0.66347582     0.03320
C1583       C  0.29466701  0.94463620  0.57675385     0.37970
C1584       C  0.22970114  0.94120058  0.71097550     0.37960
C1585       C  0.25813182  0.00707932  0.68804319     0.36380
C1586       C  0.31463447  0.89643237  0.62653115     0.36380
N1587       N  0.25933306  0.03038909  0.70839971    -0.38440
N1588       N  0.33926520  0.88067044  0.62071748    -0.38440
N1589       N  0.21326590  0.93918303  0.73642553    -0.37880
N1590       N  0.30465498  0.93947131  0.54825994    -0.37880
C1591       C  0.23046036  0.61946558  0.63918990    -0.04550
C1592       C  0.21303625  0.58976165  0.65202080    -0.01670
C1593       C  0.22395063  0.55588795  0.64173089     0.03320
C1594       C  0.25735447  0.55103777  0.62420180    -0.04550
C1595       C  0.27597586  0.58341990  0.61570695    -0.01650
C1596       C  0.25869448  0.61529527  0.61681439     0.03320
C1597       C  0.18325462  0.59436681  0.67496883     0.37970
C1598       C  0.31132166  0.58636457  0.60281019     0.37960
C1599       C  0.27142786  0.64561664  0.59719275     0.36380
C1600       C  0.19949658  0.52703798  0.64901845     0.36380
N1601       N  0.28035173  0.66964401  0.58093237    -0.38440
N1602       N  0.17992909  0.50472789  0.65670874    -0.38440
N1603       N  0.33928099  0.59034720  0.59200924    -0.37880
N1604       N  0.15949954  0.59816962  0.69319871    -0.37880
C1605       C  0.06043579  0.91817643  0.61542180    -0.04550
C1606       C  0.06042350  0.93956707  0.64649798    -0.01670
C1607       C  0.04210644  0.92891373  0.67731313     0.03320
C1608       C  0.02472220  0.89498462  0.67792694    -0.04550
C1609       C  0.02059493  0.87851116  0.64357433    -0.01650
C1610       C  0.04542819  0.88482989  0.61762219     0.03320
C1611       C  0.08299160  0.97057007  0.64822975     0.37970
C1612       C  0.98796023  0.86210121  0.63090709     0.37960
C1613       C  0.05404938  0.85768162  0.59221159     0.36380
C1614       C  0.03743731  0.95579415  0.70443711     0.36380
N1615       N  0.06264471  0.83479249  0.57399933    -0.38440
N1616       N  0.03505212  0.97811835  0.72555963    -0.38440
N1617       N  0.96216862  0.84944042  0.61958113    -0.37880
N1618       N  0.10286388  0.49393037  0.65139987    -0.37880
C1619       C  0.01761370  0.89459606  0.75010221    -0.04550
C1620       C  0.04972686  0.91192666  0.76303159    -0.01670
C1621       C  0.05157115  0.93209393  0.79581064     0.03320
C1622       C  0.02306560  0.93320677  0.81914011    -0.04550
C1623       C  0.99207695  0.91449620  0.80801029    -0.01650
C1624       C  0.99000622  0.89404415  0.77595742     0.03320
C1625       C  0.08191413  0.90890128  0.74327268     0.37970
C1626       C  0.46100830  0.91522846  0.82985517     0.37960
C1627       C  0.46099518  0.86839270  0.77454106     0.36380
C1628       C  0.08314887  0.95199266  0.80560734     0.36380
N1629       N  0.43719033  0.84887965  0.77535458    -0.38440
N1630       N  0.10787612  0.96870548  0.81352022    -0.38440
N1631       N  0.43527726  0.91450536  0.84558081    -0.37880
N1632       N  0.10771718  0.90693528  0.72777110    -0.37880
C1633       C  0.17238047  0.99321133  0.90996468    -0.04550
C1634       C  0.20337006  0.98102676  0.92549488    -0.01450
C1635       C  0.23684922  0.98730038  0.90954781     0.03320
C1636       C  0.24029620  0.99930297  0.87372933    -0.04550
C1637       C  0.20861919  0.01186180  0.85848459    -0.01650
C1638       C  0.17659028  0.01123648  0.87712642     0.03320
C1639       C  0.20124600  0.96231819  0.95854311     0.37970
C1640       C  0.20792115  0.02540825  0.82240925     0.37960
C1641       C  0.14843734  0.03058109  0.86145271     0.36380
C1642       C  0.26705695  0.98320882  0.93192731     0.36380
N1643       N  0.12651522  0.04639608  0.84873502    -0.38440
N1644       N  0.29109427  0.97858573  0.94982816    -0.38440
N1645       N  0.20678664  0.03577194  0.79376613    -0.37880
N1646       N  0.19954628  0.94715403  0.48478601    -0.37880
C1647       C  0.31057287  0.99106464  0.87189035    -0.04550
C1648       C  0.33779980  0.51671533  0.87716334    -0.01670
C1649       C  0.37241367  0.50691270  0.87681907     0.03320
C1650       C  0.38174526  0.97323909  0.88766843    -0.04550
C1651       C  0.35504987  0.94728298  0.88902936    -0.01650
C1652       C  0.31985109  0.95555791  0.88073945     0.03320
C1653       C  0.33207497  0.55326605  0.88656306     0.37970
C1654       C  0.36395575  0.91218757  0.89900560     0.37960
C1655       C  0.29359383  0.92878650  0.88867641     0.36380
C1656       C  0.39804856  0.53349112  0.86686174     0.36380
N1657       N  0.27370188  0.90754271  0.89816268    -0.38440
N1658       N  0.41475085  0.55700390  0.85696024    -0.38440
N1659       N  0.37160024  0.88414751  0.90638599    -0.37880
N1660       N  0.33029778  0.58266769  0.89471412    -0.37880
C1661       C  0.23086336  0.51343977  0.57741560    -0.04550
C1662       C  0.20664431  0.98464983  0.57847167    -0.01670
C1663       C  0.17077636  0.99014567  0.57779629     0.03320
C1664       C  0.15728320  0.52182667  0.56519097    -0.04550
C1665       C  0.18111686  0.54898959  0.55650921    -0.01650
C1666       C  0.21743707  0.54492448  0.56171651     0.03320
C1667       C  0.21674115  0.94857487  0.57351558     0.37970
C1668       C  0.16842502  0.58071783  0.54084834     0.37960
C1669       C  0.24045184  0.57228082  0.54778945     0.36380
C1670       C  0.14827846  0.96128698  0.58917778     0.36380
N1671       N  0.25801246  0.59365424  0.53481598    -0.38440
N1672       N  0.13369760  0.93646654  0.59925807    -0.38440
N1673       N  0.15845434  0.60607478  0.02844173    -0.37880
N1674       N  0.22183604  0.91905486  0.56859125    -0.37880
C1675       C  0.36961363  0.51454546  0.54939966    -0.04550
C1676       C  0.33923080  0.52053638  0.52934272    -0.01670
C1677       C  0.30558186  0.51820093  0.54488023     0.03320
C1678       C  0.30121542  0.51710615  0.58272902    -0.04550
C1679       C  0.33296846  0.51464897  0.60308993    -0.01650
C1680       C  0.36587617  0.51123376  0.58664476     0.03320
C1681       C  0.34235171  0.52843651  0.99209715     0.37970
C1682       C  0.33279285  0.01720380  0.64159353     0.37960
C1683       C  0.39609869  0.00535109  0.60908630     0.36380
C1684       C  0.27644186  0.51316957  0.52068473     0.36380
N1685       N  0.41975033  0.00031805  0.62738096    -0.38440
N1686       N  0.25245623  0.50988597  0.50191405    -0.38440
N1687       N  0.33453712  0.01955159  0.67222143    -0.37880
N1688       N  0.34545492  0.53550295  0.96260181    -0.37880
C1689       C  0.45993848  0.64871152  0.98862190    -0.04550
C1690       C  0.44211232  0.65665493  0.95683991    -0.01670
C1691       C  0.41603875  0.68179320  0.95633719     0.03320
C1692       C  0.41446267  0.70885297  0.98339970    -0.04550
C1693       C  0.43631764  0.70322809  0.51446025    -0.01650
C1694       C  0.45669169  0.67251702  0.51758370     0.03320
C1695       C  0.44581633  0.63551519  0.92473669     0.37970
C1696       C  0.43599897  0.72740462  0.54494297     0.37960
C1697       C  0.47193371  0.66422547  0.55156691     0.36380
C1698       C  0.38708767  0.67226545  0.93229022     0.36380
N1699       N  0.98380672  0.65768201  0.57888986    -0.38440
N1700       N  0.36496286  0.66245121  0.91296608    -0.38440
N1701       N  0.43591029  0.74646993  0.56934945    -0.37880
N1702       N  0.44490248  0.61993179  0.89809521    -0.37880
C1703       C  0.40460445  0.77935746  0.98702218    -0.04550
C1704       C  0.38578395  0.81102910  0.98144399    -0.01670
C1705       C  0.39780965  0.84463359  0.99529003     0.03320
C1706       C  0.43258753  0.85056718  0.50679201    -0.04550
C1707       C  0.45403921  0.82112218  0.50522806    -0.01650
C1708       C  0.44112133  0.78692334  0.49376026     0.03320
C1709       C  0.36043910  0.81242597  0.95270094     0.37970
C1710       C  0.49099501  0.82696215  0.51127089     0.37960
C1711       C  0.46698282  0.76327675  0.48049419     0.36380
C1712       C  0.37535526  0.87448769  0.99346987     0.36380
N1713       N  0.48724844  0.74483654  0.46829060    -0.38440
N1714       N  0.35748055  0.89830058  0.99210424    -0.38440
N1715       N  0.02065179  0.83148013  0.51527403    -0.37880
N1716       N  0.34053650  0.81450618  0.92956472    -0.37880
C1717       C  0.12417715  0.71027042  0.96274402    -0.04550
C1718       C  0.08926631  0.70058592  0.97274365    -0.01670
C1719       C  0.07905124  0.66478300  0.97455496     0.03320
C1720       C  0.09722437  0.63843911  0.95578058    -0.04550
C1721       C  0.13186424  0.64694613  0.94685442    -0.01650
C1722       C  0.14622711  0.68130001  0.95449268     0.03320
C1723       C  0.06634523  0.72518586  0.49023898     0.37970
C1724       C  0.15368958  0.61952161  0.93309059     0.37960
C1725       C  0.18375903  0.68525895  0.95677660     0.36380
C1726       C  0.05950815  0.65562519  0.50592559     0.36380
N1727       N  0.21362972  0.68640986  0.96128822    -0.38440
N1728       N  0.04788724  0.65085115  0.53368068    -0.38440
N1729       N  0.17092102  0.59754846  0.92202279    -0.37880
N1730       N  0.04897585  0.74411752  0.50607725    -0.37880
C1731       C  0.11171979  0.77886154  0.97018087    -0.04550
C1732       C  0.08518134  0.78411903  0.94311471    -0.01670
C1733       C  0.06843142  0.81656211  0.94004031     0.03320
C1734       C  0.07728150  0.84478820  0.96321657    -0.04550
C1735       C  0.10012690  0.83884032  0.99218099    -0.01650
C1736       C  0.11455388  0.80577059  0.99722956     0.03320
C1737       C  0.07169721  0.75599285  0.91964780     0.37970
C1738       C  0.11133605  0.86731071  0.01666933     0.37960
C1739       C  0.13360215  0.80234675  0.03018558     0.36380
C1740       C  0.04296018  0.82125974  0.91184044     0.36380
N1741       N  0.14880718  0.80288111  0.05684472    -0.38440
N1742       N  0.02255902  0.82491064  0.88949794    -0.38440
N1743       N  0.12235835  0.88912546  0.53593741    -0.37880
N1744       N  0.05801558  0.73485258  0.90122524    -0.37880
C1745       C  0.00593754  0.55996225  0.63662343    -0.04550
C1746       C  0.47811875  0.58180639  0.64432856    -0.01670
C1747       C  0.48138233  0.60795337  0.67217768     0.03320
C1748       C  0.00615049  0.60504762  0.70160561    -0.04550
C1749       C  0.03404249  0.58201938  0.69262856    -0.01650
C1750       C  0.03590621  0.56535576  0.65843093     0.03320
C1751       C  0.44922854  0.58242804  0.61906458     0.37970
C1752       C  0.06221419  0.57445309  0.71666733     0.37960
C1753       C  0.06998019  0.56194509  0.64269307     0.36380
C1754       C  0.46406289  0.64013669  0.66422893     0.36380
N1755       N  0.09710631  0.56198023  0.62949062    -0.38440
N1756       N  0.45010926  0.66525030  0.65604510    -0.38440
N1757       N  0.08587868  0.56581823  0.73321561    -0.37880
N1758       N  0.42654281  0.58332726  0.59864840    -0.37880
C1759       C  0.98798078  0.57550661  0.84196288    -0.04550
C1760       C  0.98223366  0.55538646  0.81031049    -0.01670
C1761       C  0.98919305  0.57028560  0.77673373     0.03320
C1762       C  0.99589513  0.60745363  0.77434660    -0.04550
C1763       C  0.49349970  0.62702661  0.80762942    -0.01650
C1764       C  0.49870325  0.61057939  0.83940076     0.03320
C1765       C  0.97004971  0.51912295  0.81244322     0.37970
C1766       C  0.47013657  0.65540631  0.81347909     0.37960
C1767       C  0.51449725  0.63064344  0.86912888     0.36380
C1768       C  0.98654715  0.54705358  0.74586251     0.36380
N1769       N  0.52735402  0.64669636  0.89255834    -0.38440
N1770       N  0.98256617  0.52811994  0.72156153    -0.38440
N1771       N  0.45032429  0.67643900  0.82114899    -0.37880
N1772       N  0.95909318  0.49055066  0.81384608    -0.37880
C1773       C  0.41268547  0.69711082  0.73969004    -0.04550
C1774       C  0.44557293  0.71172786  0.75059532    -0.01670
C1775       C  0.47653219  0.69156743  0.74822327     0.03320
C1776       C  0.47438652  0.65449754  0.73849141    -0.04550
C1777       C  0.43962680  0.63991920  0.73367337    -0.01650
C1778       C  0.41192447  0.66158177  0.72697148     0.03320
C1779       C  0.44755258  0.74669535  0.76651412     0.37970
C1780       C  0.43074011  0.60241933  0.73210603     0.37960
C1781       C  0.38461556  0.64676956  0.70314235     0.36380
C1782       C  0.50786642  0.70736670  0.76470074     0.36380
N1783       N  0.36339838  0.63537169  0.68361924    -0.38440
N1784       N  0.53204955  0.72053133  0.77888526    -0.38440
N1785       N  0.41995174  0.57364879  0.73003207    -0.37880
N1786       N  0.44950719  0.77425024  0.78015745    -0.37880
C1787       C  0.04446466  0.64587662  0.74415483    -0.04550
C1788       C  0.05679061  0.67033176  0.71872583    -0.01670
C1789       C  0.09070715  0.68660201  0.72096237     0.03320
C1790       C  0.11567107  0.67829486  0.74769811    -0.04550
C1791       C  0.10472174  0.65354517  0.77269150    -0.01650
C1792       C  0.07044194  0.63699702  0.77091121     0.03320
C1793       C  0.03466639  0.68073167  0.68957761     0.37970
C1794       C  0.13016052  0.64224561  0.79849262     0.37960
C1795       C  0.06612633  0.60707103  0.79377974     0.36380
C1796       C  0.09937221  0.71150274  0.69355404     0.36380
N1797       N  0.06529325  0.58271425  0.81163454    -0.38440
N1798       N  0.10445015  0.72961331  0.66983970    -0.38440
N1799       N  0.15022836  0.63261863  0.81889820    -0.37880
N1800       N  0.01996586  0.69191250  0.66562890    -0.37880
C1801       C  0.00565437  0.12796254  0.23923879    -0.01700
O1802       O  0.97112764  0.05495161  0.40025125    -0.85700
O1803       O  0.63007761  0.47269644  0.45696017    -0.85870
O1804       O  0.57597253  0.08067180  0.43098291    -0.87540
O1805       O  0.54231094  0.47863565  0.36500933    -0.86290
O1806       O  0.50994404  0.42960198  0.38034618    -0.85880
O1807       O  0.58261166  0.09158067  0.49079106    -0.87250
O1808       O  0.61191569  0.50496139  0.41114187    -0.85730
O1809       O  0.52565897  0.04820746  0.37695283    -0.85320
Zr1810     Zr  0.55240703  0.01763797  0.42053046     2.84310
O1811       O  0.55146141  0.45935317  0.43833031    -1.07290
O1812       O  0.51935723  0.05285585  0.45898232    -1.08020
C1813       C  0.49461314  0.05821836  0.37542481     1.07410
C1814       C  0.63607377  0.48956338  0.42753850     1.07350
C1815       C  0.58493013  0.10081049  0.45861680     1.10330
C1816       C  0.52585445  0.44853434  0.35720846     1.08110
H1817       H  0.59968739  0.02941864  0.47694109     0.33670
O1818       O  0.57615136  0.01960324  0.47746138    -1.28250
H1819       H  0.98473902  0.49344559  0.39901073     0.33340
O1820       O  0.49503766  0.49419791  0.42249915    -1.29920
O1821       O  0.57400114  0.43659616  0.05565941    -0.85700
O1822       O  0.91277662  0.02628406  0.50307520    -0.87190
O1823       O  0.59999039  0.04396316  0.04758116    -0.85770
O1824       O  0.53072306  0.38464300  0.44868697    -0.85820
O1825       O  0.93561202  0.44645560  0.41080953    -0.85530
O1826       O  0.50320912  0.10500083  0.00763438    -0.85340
O1827       O  0.99185787  0.01258958  0.09193848    -0.85710
O1828       O  0.95591922  0.40922658  0.02959195    -0.85170
O1829       O  0.52692453  0.06057341  0.07823411    -0.86240
O1830       O  0.95829632  0.39266476  0.47048533    -0.85390
O1831       O  0.61916761  0.49011470  0.02970678    -0.85790
O1832       O  0.95411251  0.08833381  0.47627771    -0.85510
O1833       O  0.91776646  0.50064850  0.42872685    -0.85170
O1834       O  0.58397519  0.40562656  0.46858013    -0.85570
O1835       O  0.52019504  0.44437422  0.08040323    -0.85870
O1836       O  0.92484843  0.48771147  0.04671229    -0.87210
Zr1837     Zr  0.57608280  0.46178804  0.49498720     2.83100
Zr1838     Zr  0.96279090  0.02889388  0.46092176     2.83500
Zr1839     Zr  0.54212492  0.05265287  0.01695707     2.84090
Zr1840     Zr  0.49348478  0.43658908  0.44172925     2.83360
Zr1841     Zr  0.98440575  0.47102919  0.03788742     2.84220
O1842       O  0.96038186  0.47097793  0.48044325    -1.07780
O1843       O  0.54168772  0.49431965  0.03396201    -1.07280
C1844       C  0.55184344  0.43474537  0.08155322     1.07380
C1845       C  0.90465378  0.00940867  0.03174330     1.10000
C1846       C  0.62263168  0.01904963  0.04713456     1.07550
C1847       C  0.56278532  0.38051727  0.45904517     1.07910
C1848       C  0.91402179  0.47232759  0.41030905     1.07500
C1849       C  0.97374216  0.11184840  0.49181477     1.07050
C1850       C  0.50837743  0.04262549  0.10003841     1.07470
C1851       C  0.94961705  0.38699519  0.00275435     1.06990
H1852       H  0.97129819  0.04388814  0.03398310     0.33660
O1853       O  0.98507493  0.02928501  0.01866764    -1.28880
H1854       H  0.52000721  0.41412361  0.00805001     0.33690
O1855       O  0.51883294  0.43758183  0.49900926    -1.30260
C1856       C  0.76448812  0.01513001  0.10286779    -0.01700
O1857       O  0.67471493  0.19891314  0.27268884    -0.85700
O1858       O  0.75265169  0.27463670  0.10981355    -0.85870
O1859       O  0.65529256  0.27364245  0.19722894    -0.87540
O1860       O  0.70962513  0.17533233  0.16028552    -0.86290
O1861       O  0.76293492  0.15475827  0.17644217    -0.85880
O1862       O  0.66999247  0.32393072  0.22919675    -0.87250
O1863       O  0.70137144  0.24716988  0.12550904    -0.85730
O1864       O  0.66253879  0.19796005  0.21321024    -0.85320
Zr1865     Zr  0.70566539  0.23481664  0.18756121     2.84310
O1866       O  0.76288517  0.23316632  0.16732460    -1.07290
O1867       O  0.70518789  0.25800990  0.24514594    -1.08020
C1868       C  0.65363455  0.19241977  0.24518360     1.07410
C1869       C  0.72261465  0.25892476  0.10202650     1.07350
C1870       C  0.64788488  0.30324868  0.21295236     1.10330
C1871       C  0.73331949  0.15188164  0.16062959     1.08110
H1872       H  0.71463069  0.30668374  0.17011850     0.33670
O1873       O  0.72838335  0.29259070  0.18557824    -1.28250
H1874       H  0.72736021  0.17632080  0.22643193     0.33340
O1875       O  0.73772997  0.19974189  0.22538667    -1.29920
O1876       O  0.84527864  0.31981769  0.17197559    -0.85700
O1877       O  0.78019799  0.22480506  0.33384579    -0.87190
O1878       O  0.74202133  0.36917689  0.20757381    -0.85770
O1879       O  0.82055962  0.20389667  0.14500078    -0.85820
O1880       O  0.79174982  0.14828109  0.24799759    -0.85530
O1881       O  0.69944787  0.30829402  0.30296444    -0.85340
O1882       O  0.81333630  0.34144608  0.29371479    -0.85710
O1883       O  0.87400319  0.24650332  0.25721953    -0.85170
O1884       O  0.75898320  0.35775611  0.27724545    -0.86240
O1885       O  0.85383127  0.19916966  0.22504962    -0.85390
O1886       O  0.77297200  0.35149076  0.15943316    -0.85790
O1887       O  0.70983695  0.25443433  0.32647189    -0.85510
O1888       O  0.75175039  0.16239209  0.28950521    -0.85170
O1889       O  0.83425501  0.26170984  0.14139835    -0.85570
O1890       O  0.86327289  0.31584727  0.23024068    -0.85870
O1891       O  0.82528421  0.26404967  0.32308279    -0.87210
Zr1892     Zr  0.78633696  0.29078653  0.16657194     2.83100
Zr1893     Zr  0.73803421  0.22306317  0.28229299     2.83500
Zr1894     Zr  0.72917325  0.31508465  0.24390924     2.84090
Zr1895     Zr  0.79526894  0.19964446  0.20650957     2.83360
Zr1896     Zr  0.82015875  0.28260099  0.26294418     2.84220
O1897       O  0.79607558  0.22447818  0.26357834    -1.07780
O1898       O  0.78654930  0.31538662  0.22416642    -1.07280
C1899       C  0.86793265  0.32444755  0.19773001     1.07380
C1900       C  0.80935527  0.24167173  0.34279773     1.10000
C1901       C  0.75896211  0.37566408  0.17830268     1.07550
C1902       C  0.83231639  0.23108953  0.12769302     1.07910
C1903       C  0.77325083  0.14083626  0.27603886     1.07500
C1904       C  0.69688854  0.28476066  0.32761475     1.07050
C1905       C  0.78754027  0.36290945  0.29400479     1.07470
C1906       C  0.87842728  0.21621647  0.24124032     1.06990
H1907       H  0.76260486  0.29131048  0.30582665     0.33660
O1908       O  0.76223973  0.28118231  0.28208454    -1.28880
H1909       H  0.84193061  0.25653478  0.19985725     0.33690
O1910       O  0.81781426  0.25720859  0.20644856    -1.30260
C1911       C  0.64017526  0.24939173  0.46524073    -0.01700
C1912       C  0.51495199  0.37267805  0.21222222    -0.01700
C1913       C  0.88629653  0.23957064  0.48283119    -0.01700
C1914       C  0.77597145  0.50056442  0.35061634    -0.01700
C1915       C  0.65565175  0.26102682  0.42773696    -0.04550
C1916       C  0.64412892  0.24505527  0.39393072    -0.01670
C1917       C  0.64827435  0.26358748  0.36209381     0.03320
C1918       C  0.67543255  0.28887435  0.35958883    -0.04550
C1919       C  0.68993429  0.30278405  0.39145678    -0.01650
C1920       C  0.67398795  0.29454891  0.42393727     0.03320
C1921       C  0.62749576  0.21050602  0.38868883     0.37970
C1922       C  0.72418021  0.32010354  0.39205351     0.37960
C1923       C  0.67792906  0.32116993  0.45202099     0.36380
C1924       C  0.62901483  0.25232180  0.32999788     0.36380
N1925       N  0.68240759  0.34327357  0.47339390    -0.38440
N1926       N  0.61334447  0.24350086  0.30473139    -0.38440
N1927       N  0.75212032  0.33261578  0.39288960    -0.37880
N1928       N  0.61381393  0.18365388  0.38139321    -0.37880
C1929       C  0.70998962  0.25211611  0.06395263    -0.04550
C1930       C  0.71798196  0.27337456  0.03477502    -0.01670
C1931       C  0.70213332  0.26531232  0.00086450     0.03320
C1932       C  0.66797495  0.24810642  0.99832557    -0.04550
C1933       C  0.65978873  0.22873172  0.02995705    -0.01650
C1934       C  0.68479480  0.22490529  0.05706013     0.03320
C1935       C  0.73823185  0.30582799  0.03975102     0.37970
C1936       C  0.62513059  0.21841917  0.04109538     0.37960
C1937       C  0.68197840  0.19401041  0.07885738     0.36380
C1938       C  0.72527013  0.26798715  0.47126131     0.36380
N1939       N  0.67840034  0.16842532  0.09456401    -0.38440
N1940       N  0.74518651  0.27080927  0.44863969    -0.38440
N1941       N  0.59948378  0.21025386  0.05510822    -0.37880
N1942       N  0.75302794  0.33269874  0.04355226    -0.37880
C1943       C  0.82749000  0.23603707  0.37816386    -0.04550
C1944       C  0.86385845  0.24170689  0.38095628    -0.01670
C1945       C  0.88123153  0.24580380  0.41403431     0.03320
C1946       C  0.86392074  0.23786259  0.44660902    -0.04550
C1947       C  0.82753266  0.22588058  0.44264463    -0.01650
C1948       C  0.80978640  0.22655711  0.40904225     0.03320
C1949       C  0.88461540  0.23848402  0.34942955     0.37970
C1950       C  0.80786926  0.20961015  0.47088931     0.37960
C1951       C  0.77344620  0.21558799  0.40521295     0.36380
C1952       C  0.91765105  0.25721550  0.41265038     0.36380
N1953       N  0.74445836  0.20768369  0.39990237    -0.38440
N1954       N  0.94604637  0.26699205  0.40766003    -0.38440
N1955       N  0.79099550  0.19646465  0.49253945    -0.37880
N1956       N  0.90166545  0.23460634  0.32477096    -0.37880
C1957       C  0.84177477  0.22995973  0.08920895    -0.04550
C1958       C  0.83468204  0.25930904  0.06775046    -0.01670
C1959       C  0.84204579  0.25891123  0.03143070     0.03320
C1960       C  0.86234722  0.23237922  0.01632966    -0.04550
C1961       C  0.86201706  0.20016065  0.03578201    -0.01650
C1962       C  0.85582173  0.20044847  0.07266193     0.03320
C1963       C  0.82059372  0.29137964  0.08222235     0.37970
C1964       C  0.86410300  0.16594978  0.01821822     0.37960
C1965       C  0.86878297  0.17252556  0.09389044     0.36380
C1966       C  0.82092370  0.28065015  0.00960991     0.36380
N1967       N  0.88092944  0.15102930  0.11074237    -0.38440
N1968       N  0.80204073  0.29792144  0.99420879    -0.38440
N1969       N  0.86503708  0.13813436  0.00522973    -0.37880
N1970       N  0.80991006  0.31741051  0.09321217    -0.37880
C1971       C  0.77183502  0.47081119  0.31996673    -0.04550
C1972       C  0.74545000  0.44416071  0.32282336    -0.01670
C1973       C  0.75404561  0.40886001  0.32370393     0.03320
C1974       C  0.78746538  0.39777447  0.31251204    -0.04550
C1975       C  0.81203258  0.42408554  0.30306885    -0.01650
C1976       C  0.80136510  0.45923377  0.30067464     0.03320
C1977       C  0.70923405  0.45040808  0.31498661     0.37970
C1978       C  0.84565707  0.41458380  0.28928325     0.37960
C1979       C  0.80595912  0.47241324  0.26541356     0.36380
C1980       C  0.72613702  0.38442263  0.33369356     0.36380
N1981       N  0.81133886  0.48165495  0.23693205    -0.38440
N1982       N  0.70104959  0.36887630  0.34138322    -0.38440
N1983       N  0.87266856  0.40711775  0.27863247    -0.37880
N1984       N  0.67994676  0.45281918  0.30819053    -0.37880
C1985       C  0.77658461  0.10601842  0.29593241    -0.04550
C1986       C  0.76026954  0.10092866  0.32960482    -0.01670
C1987       C  0.76452010  0.06980473  0.34910932     0.03320
C1988       C  0.78075510  0.03957914  0.33386663    -0.04550
C1989       C  0.80296816  0.04810249  0.30463153    -0.01650
C1990       C  0.79828480  0.07877523  0.28420677     0.03320
C1991       C  0.73780765  0.12694429  0.34519000     0.37970
C1992       C  0.83613175  0.03159279  0.30020586     0.37960
C1993       C  0.81645871  0.08148080  0.25089265     0.36380
C1994       C  0.75456951  0.07087072  0.38639081     0.36380
N1995       N  0.83087428  0.08229985  0.22412412    -0.38440
N1996       N  0.74711299  0.07241594  0.41608586    -0.38440
N1997       N  0.86307417  0.01963240  0.29534239    -0.37880
N1998       N  0.71935440  0.14696672  0.35789153    -0.37880
C1999       C  0.90409102  0.33732906  0.19043893    -0.04550
C2000       C  0.91352330  0.37312111  0.19395443    -0.01670
C2001       C  0.94897672  0.38410256  0.19932154     0.03320
C2002       C  0.97586172  0.35901530  0.20463263    -0.04550
C2003       C  0.96481410  0.32257129  0.20184361    -0.01650
C2004       C  0.93034450  0.31256941  0.19128563     0.03320
C2005       C  0.88636318  0.39873951  0.19348010     0.37970
C2006       C  0.98669575  0.29439923  0.21231392     0.37960
C2007       C  0.92147785  0.27615798  0.18151838     0.36380
C2008       C  0.95637631  0.42162626  0.20237115     0.36380
N2009       N  0.91477634  0.24736637  0.17269846    -0.38440
N2010       N  0.96010874  0.45186783  0.20474829    -0.38440
N2011       N  0.00422913  0.27146633  0.21964014    -0.37880
N2012       N  0.86490366  0.41936676  0.19336905    -0.37880
C2013       C  0.61114041  0.31449164  0.21328383    -0.04550
C2014       C  0.59463901  0.32321978  0.24554263    -0.01670
C2015       C  0.55953366  0.33302372  0.24561356     0.03320
C2016       C  0.54267372  0.34198166  0.21338623    -0.04550
C2017       C  0.55659014  0.32490299  0.18233915    -0.01650
C2018       C  0.59150628  0.31479316  0.18181525     0.03320
C2019       C  0.61394294  0.32546133  0.27875893     0.37970
C2020       C  0.53432100  0.30723321  0.15559753     0.37960
C2021       C  0.60708163  0.30440072  0.14856650     0.36380
C2022       C  0.54038662  0.33029429  0.27849546     0.36380
N2023       N  0.61958960  0.29531511  0.12232334    -0.38440
N2024       N  0.52576636  0.32720602  0.30502887    -0.38440
N2025       N  0.51773493  0.29127759  0.13454382    -0.37880
N2026       N  0.62840650  0.32929004  0.30571896    -0.37880
C2027       C  0.76635042  0.48001989  0.12677059    -0.04550
C2028       C  0.78205274  0.44857951  0.11293433    -0.01670
C2029       C  0.78531749  0.41853327  0.13381347     0.03320
C2030       C  0.76379358  0.41288028  0.16367401    -0.04550
C2031       C  0.74957112  0.44350519  0.17873595    -0.01650
C2032       C  0.75634881  0.47718197  0.16347556     0.03320
C2033       C  0.79466698  0.44463494  0.07675365     0.37970
C2034       C  0.72969810  0.44119933  0.21097291     0.37960
C2035       C  0.75813240  0.50707812  0.18804330     0.36380
C2036       C  0.81463602  0.39643214  0.12653169     0.36380
N2037       N  0.75933390  0.53038756  0.20840020    -0.38440
N2038       N  0.83926690  0.38067041  0.12071814    -0.38440
N2039       N  0.71325993  0.43918109  0.23642089    -0.37880
N2040       N  0.80465444  0.43946984  0.04825958    -0.37880
C2041       C  0.73045754  0.11946674  0.13919204    -0.04550
C2042       C  0.71303340  0.08976240  0.15202206    -0.01670
C2043       C  0.72394826  0.05588892  0.14173173     0.03320
C2044       C  0.75735248  0.05103932  0.12420314    -0.04550
C2045       C  0.77597393  0.08342166  0.11570970    -0.01650
C2046       C  0.75869225  0.11529688  0.11681706     0.03320
C2047       C  0.68325133  0.09436689  0.17496963     0.37970
C2048       C  0.81132053  0.08636671  0.10281535     0.37960
C2049       C  0.77142622  0.14561859  0.09719631     0.36380
C2050       C  0.69949455  0.02703853  0.14901869     0.36380
N2051       N  0.78035060  0.16964619  0.08093651    -0.38440
N2052       N  0.67992736  0.00472801  0.15670853    -0.38440
N2053       N  0.83928070  0.09034961  0.09201669    -0.37880
N2054       N  0.65949590  0.09816918  0.19319916    -0.37880
C2055       C  0.56043558  0.41817906  0.11542229    -0.04550
C2056       C  0.56042303  0.43957028  0.14649806    -0.01670
C2057       C  0.54210510  0.42891779  0.17731291     0.03320
C2058       C  0.52472091  0.39498877  0.17792714    -0.04550
C2059       C  0.52059358  0.37851478  0.14357479    -0.01650
C2060       C  0.54542707  0.38483287  0.11762272     0.03320
C2061       C  0.58299119  0.47057327  0.14822956     0.37970
C2062       C  0.48795944  0.36210304  0.13090832     0.37960
C2063       C  0.55404772  0.35768427  0.09221229     0.36380
C2064       C  0.53743520  0.45579870  0.20443622     0.36380
N2065       N  0.56264256  0.33479472  0.07400031    -0.38440
N2066       N  0.53504958  0.47812306  0.22555848    -0.38440
N2067       N  0.46216818  0.34944094  0.11958292    -0.37880
N2068       N  0.60286304  0.99392885  0.15140101    -0.37880
C2069       C  0.51761404  0.39460024  0.25010238    -0.04550
C2070       C  0.54972694  0.41193184  0.26303109    -0.01670
C2071       C  0.55157149  0.43209781  0.29581076     0.03320
C2072       C  0.52306619  0.43320927  0.31914057    -0.04550
C2073       C  0.49207762  0.41449868  0.30801083    -0.01650
C2074       C  0.49000712  0.39404677  0.27595812     0.03320
C2075       C  0.58191394  0.40890824  0.24327131     0.37970
C2076       C  0.96100890  0.41523062  0.32985563     0.37960
C2077       C  0.96099762  0.36839348  0.27454281     0.36380
C2078       C  0.58314952  0.45199580  0.30560813     0.36380
N2079       N  0.93719415  0.34887875  0.27535725    -0.38440
N2080       N  0.60787731  0.46870755  0.31352154    -0.38440
N2081       N  0.93527768  0.41450710  0.34558096    -0.37880
N2082       N  0.60771677  0.40694387  0.22776909    -0.37880
C2083       C  0.67238119  0.49321046  0.40996319    -0.04550
C2084       C  0.70337084  0.48102535  0.42549278    -0.01450
C2085       C  0.73685000  0.48729989  0.40954595     0.03320
C2086       C  0.74029705  0.49930282  0.37372761    -0.04550
C2087       C  0.70861988  0.51186155  0.35848310    -0.01650
C2088       C  0.67659097  0.51123606  0.37712514     0.03320
C2089       C  0.70124682  0.46231500  0.45853995     0.37970
C2090       C  0.70792182  0.52540908  0.32240823     0.37960
C2091       C  0.64843811  0.53058130  0.36145210     0.36380
C2092       C  0.76705769  0.48320935  0.43192563     0.36380
N2093       N  0.62651610  0.54639687  0.34873498    -0.38440
N2094       N  0.79109531  0.47858688  0.44982624    -0.38440
N2095       N  0.70678724  0.53577372  0.29376549    -0.37880
N2096       N  0.69954640  0.44715346  0.98478465    -0.37880
C2097       C  0.81057409  0.49106480  0.37188891    -0.04550
C2098       C  0.83779899  0.01671493  0.37716433    -0.01670
C2099       C  0.87241287  0.00691240  0.37681987     0.03320
C2100       C  0.88174634  0.47323882  0.38766773    -0.04550
C2101       C  0.85505072  0.44728301  0.38902899    -0.01650
C2102       C  0.81985205  0.45555811  0.38073866     0.03320
C2103       C  0.83207406  0.05326554  0.38656452     0.37970
C2104       C  0.86395622  0.41218767  0.39900588     0.37960
C2105       C  0.79359464  0.42878695  0.38867589     0.36380
C2106       C  0.89804764  0.03349121  0.36686313     0.36380
N2107       N  0.77370262  0.40754340  0.39816248    -0.38440
N2108       N  0.91474960  0.05700446  0.35696215    -0.38440
N2109       N  0.87160033  0.38414763  0.40638679    -0.37880
N2110       N  0.83029688  0.08266708  0.39471594    -0.37880
C2111       C  0.73086237  0.01344198  0.07741576    -0.04550
C2112       C  0.70664423  0.48464974  0.07847242    -0.01670
C2113       C  0.67077635  0.49014610  0.07779727     0.03320
C2114       C  0.65728215  0.02182794  0.06519059    -0.04550
C2115       C  0.68111546  0.04899140  0.05650950    -0.01650
C2116       C  0.71743569  0.04492691  0.06171739     0.03320
C2117       C  0.71674067  0.44857458  0.07351684     0.37970
C2118       C  0.66842325  0.08071962  0.04084891     0.37960
C2119       C  0.74045012  0.07228432  0.04779177     0.36380
C2120       C  0.64827822  0.46128773  0.08917902     0.36380
N2121       N  0.75801052  0.09365855  0.03481928    -0.38440
N2122       N  0.63369735  0.43646743  0.09925964    -0.38440
N2123       N  0.65845323  0.10607411  0.52844048    -0.37880
N2124       N  0.72183531  0.41905445  0.06859297    -0.37880
C2125       C  0.86961292  0.01454721  0.04940045    -0.04550
C2126       C  0.83923027  0.02053890  0.02934352    -0.01670
C2127       C  0.80558116  0.01820440  0.04488089     0.03320
C2128       C  0.80121441  0.01710889  0.08272969    -0.04550
C2129       C  0.83296741  0.01465091  0.10309060    -0.01650
C2130       C  0.86587523  0.01123558  0.08664551     0.03320
C2131       C  0.84235205  0.02843567  0.49209732     0.37970
C2132       C  0.83279353  0.51720205  0.14159308     0.37960
C2133       C  0.89609895  0.50534921  0.10908544     0.36380
C2134       C  0.77644131  0.01317524  0.02068482     0.36380
N2135       N  0.91975056  0.50031562  0.12737995    -0.38440
N2136       N  0.75245640  0.00989377  0.00191293    -0.38440
N2137       N  0.83453800  0.51954970  0.17222098    -0.37880
N2138       N  0.84545551  0.03550112  0.46260176    -0.37880
C2139       C  0.95993894  0.14871056  0.48862227    -0.04550
C2140       C  0.94211283  0.15665436  0.45684043    -0.01670
C2141       C  0.91603912  0.18179245  0.45633815     0.03320
C2142       C  0.91446321  0.20885213  0.48340082    -0.04550
C2143       C  0.93631725  0.20322853  0.01446166    -0.01650
C2144       C  0.95669113  0.17251729  0.01758483     0.03320
C2145       C  0.94581727  0.13551526  0.42473686     0.37970
C2146       C  0.93599886  0.22740500  0.04494443     0.37960
C2147       C  0.97193334  0.16422550  0.05156788     0.36380
C2148       C  0.88708770  0.17226435  0.43229174     0.36380
N2149       N  0.48380660  0.15768189  0.07889065    -0.38440
N2150       N  0.86496257  0.16244986  0.41296809    -0.38440
N2151       N  0.93591041  0.24647028  0.06935094    -0.37880
N2152       N  0.94490418  0.11993223  0.39809517    -0.37880
C2153       C  0.90460501  0.27935682  0.48702351    -0.04550
C2154       C  0.88578456  0.31102850  0.48144508    -0.01670
C2155       C  0.89781039  0.34463316  0.49529070     0.03320
C2156       C  0.93258776  0.35056845  0.00679223    -0.04550
C2157       C  0.95403925  0.32112327  0.00522877    -0.01650
C2158       C  0.94112122  0.28692424  0.99376158     0.03320
C2159       C  0.86043963  0.31242516  0.45270209     0.37970
C2160       C  0.99099507  0.32696318  0.01127132     0.37960
C2161       C  0.96698269  0.26327734  0.98049609     0.36380
C2162       C  0.87535606  0.37448729  0.49347024     0.36380
N2163       N  0.98724847  0.24483696  0.96829305    -0.38440
N2164       N  0.85748142  0.39830021  0.49210437    -0.38440
N2165       N  0.52065189  0.33148102  0.01527407    -0.37880
N2166       N  0.84053699  0.31450529  0.42956588    -0.37880
C2167       C  0.62417762  0.21026906  0.46274349    -0.04550
C2168       C  0.58926684  0.20058438  0.47274332    -0.01670
C2169       C  0.57905167  0.16478138  0.47455422     0.03320
C2170       C  0.59722450  0.13843757  0.45577932    -0.04550
C2171       C  0.63186425  0.14694485  0.44685274    -0.01650
C2172       C  0.64622732  0.18129864  0.45449151     0.03320
C2173       C  0.56634595  0.22518655  0.99023988     0.37970
C2174       C  0.65368943  0.11952053  0.43308825     0.37960
C2175       C  0.68375920  0.18525725  0.45677629     0.36380
C2176       C  0.55950719  0.15562574  0.00592472     0.36380
N2177       N  0.71362977  0.18640795  0.46128884    -0.38440
N2178       N  0.54788601  0.15085178  0.03367970    -0.38440
N2179       N  0.67092074  0.09754755  0.42201989    -0.37880
N2180       N  0.54897696  0.24411819  0.00607867    -0.37880
C2181       C  0.61172018  0.27886006  0.47018148    -0.04550
C2182       C  0.58518172  0.28411766  0.44311533    -0.01670
C2183       C  0.56843182  0.31656082  0.44004100     0.03320
C2184       C  0.57728160  0.34478676  0.46321761    -0.04550
C2185       C  0.60012650  0.33883847  0.49218234    -0.01650
C2186       C  0.61455397  0.30576884  0.49723039     0.03320
C2187       C  0.57169781  0.25599153  0.41964822     0.37970
C2188       C  0.61133467  0.36730839  0.51667165     0.37960
C2189       C  0.63360338  0.30234510  0.53018563     0.36380
C2190       C  0.54296084  0.32125862  0.41184095     0.36380
N2191       N  0.64880990  0.30287955  0.55684385    -0.38440
N2192       N  0.52255988  0.32490966  0.38949830    -0.38440
N2193       N  0.62235681  0.38912485  0.03594058    -0.37880
N2194       N  0.55801663  0.23485108  0.40122554    -0.37880
C2195       C  0.50593698  0.05996055  0.13662314    -0.04550
C2196       C  0.97811865  0.08180516  0.14432822    -0.01670
C2197       C  0.98138254  0.10795144  0.17217780     0.03320
C2198       C  0.50615013  0.10504421  0.20160605    -0.04550
C2199       C  0.53404181  0.08201566  0.19262877    -0.01650
C2200       C  0.53590557  0.06535302  0.15843077     0.03320
C2201       C  0.94922895  0.08242822  0.11906371     0.37970
C2202       C  0.56221328  0.07444808  0.21666726     0.37960
C2203       C  0.56997953  0.06194279  0.14269271     0.36380
C2204       C  0.96406398  0.14013541  0.16422944     0.36380
N2205       N  0.59710558  0.06197820  0.12949008    -0.38440
N2206       N  0.95011133  0.16524978  0.15604617    -0.38440
N2207       N  0.58587777  0.06581186  0.23321472    -0.37880
N2208       N  0.92654370  0.08332860  0.09864711    -0.37880
C2209       C  0.48797976  0.07550468  0.34196310    -0.04550
C2210       C  0.48223126  0.05538367  0.31031134    -0.01670
C2211       C  0.48919080  0.07028177  0.27673420     0.03320
C2212       C  0.49589358  0.10744949  0.27434664    -0.04550
C2213       C  0.99349774  0.12702343  0.30762849    -0.01650
C2214       C  0.99870388  0.11057705  0.33939955     0.03320
C2215       C  0.47004669  0.01912045  0.31244507     0.37970
C2216       C  0.97012269  0.15539318  0.31347792     0.37960
C2217       C  0.01449853  0.13064223  0.36912635     0.36380
C2218       C  0.48654582  0.04704930  0.24586332     0.36380
N2219       N  0.02735580  0.14669596  0.39255497    -0.38440
N2220       N  0.48256609  0.02811538  0.22156240    -0.38440
N2221       N  0.95030151  0.17641802  0.32114539    -0.37880
N2222       N  0.45908979  0.99054835  0.31384878    -0.37880
C2223       C  0.91268510  0.19710799  0.23969088    -0.04550
C2224       C  0.94557257  0.21172432  0.25059744    -0.01670
C2225       C  0.97653157  0.19156328  0.24822664     0.03320
C2226       C  0.97438609  0.15449395  0.23849217    -0.04550
C2227       C  0.93962626  0.13991619  0.23367251    -0.01650
C2228       C  0.91192412  0.16157933  0.22697111     0.03320
C2229       C  0.94755247  0.24669204  0.26651568     0.37970
C2230       C  0.93073949  0.10241633  0.23210337     0.37960
C2231       C  0.88461535  0.14676824  0.20314122     0.36380
C2232       C  0.00786465  0.20736108  0.26470754     0.36380
N2233       N  0.86339820  0.13537110  0.18361766    -0.38440
N2234       N  0.03204675  0.22052469  0.27889482    -0.38440
N2235       N  0.91995156  0.07364572  0.23002769    -0.37880
N2236       N  0.94950704  0.27424716  0.28015856    -0.37880
C2237       C  0.54446407  0.14587176  0.24415749    -0.04550
C2238       C  0.55678891  0.17033066  0.21873223    -0.01670
C2239       C  0.59070117  0.18660934  0.22097660     0.03320
C2240       C  0.61566799  0.17829621  0.24770678    -0.04550
C2241       C  0.60472237  0.15353737  0.27269286    -0.01650
C2242       C  0.57044198  0.13698969  0.27091245     0.03320
C2243       C  0.53466808  0.18072526  0.18957911     0.37970
C2244       C  0.63016463  0.14222975  0.29848626     0.37960
C2245       C  0.56612559  0.10706248  0.29377928     0.36380
C2246       C  0.59935766  0.21152723  0.19358233     0.36380
N2247       N  0.56529139  0.08270468  0.31163266    -0.38440
N2248       N  0.60442352  0.22965126  0.16987638    -0.38440
N2249       N  0.65023523  0.13259601  0.31888536    -0.37880
N2250       N  0.51997189  0.19190176  0.16562540    -0.37880
C2251       C  0.00565363  0.12795676  0.73923854    -0.01700
O2252       O  0.97112803  0.05495198  0.90025198    -0.85700
O2253       O  0.63007654  0.47269706  0.95695932    -0.85870
O2254       O  0.57597285  0.08067257  0.93098303    -0.87540
O2255       O  0.54231027  0.47863807  0.86500914    -0.86290
O2256       O  0.50994365  0.42960401  0.88034543    -0.85880
O2257       O  0.58261136  0.09158264  0.99079113    -0.87250
O2258       O  0.61191488  0.50496282  0.91114146    -0.85730
O2259       O  0.52565975  0.04820908  0.87695402    -0.85320
Zr2260     Zr  0.55240756  0.01763843  0.92053076     2.84310
O2261       O  0.55146052  0.45935442  0.93832975    -1.07290
O2262       O  0.51935808  0.05285637  0.95898296    -1.08020
C2263       C  0.49461369  0.05821926  0.87542582     1.07410
C2264       C  0.63607283  0.48956422  0.92753776     1.07350
C2265       C  0.58493005  0.10081186  0.95861667     1.10330
C2266       C  0.52585393  0.44853685  0.85720804     1.08110
H2267       H  0.59968788  0.02941992  0.97694160     0.33670
O2268       O  0.57615189  0.01960442  0.97746186    -1.28250
H2269       H  0.98473824  0.49344677  0.89901021     0.33340
O2270       O  0.49503681  0.49419892  0.92249863    -1.29920
O2271       O  0.57400239  0.43659645  0.55566020    -0.85700
O2272       O  0.91277740  0.02628503  0.00307585    -0.87190
O2273       O  0.59998962  0.04396199  0.54758035    -0.85770
O2274       O  0.53072253  0.38464391  0.94868571    -0.85820
O2275       O  0.93561126  0.44645584  0.91080884    -0.85530
O2276       O  0.50320846  0.10499986  0.50763324    -0.85340
O2277       O  0.99185749  0.01258678  0.59193746    -0.85710
O2278       O  0.95592025  0.40922654  0.52959312    -0.85170
O2279       O  0.52692361  0.06057113  0.57823333    -0.86240
O2280       O  0.95829583  0.39266512  0.97048414    -0.85390
O2281       O  0.61916883  0.49011377  0.52970734    -0.85790
O2282       O  0.95411359  0.08833492  0.97627811    -0.85510
O2283       O  0.91776557  0.50064886  0.92872565    -0.85170
O2284       O  0.58397471  0.40562802  0.96857798    -0.85570
O2285       O  0.52019632  0.44437473  0.58040397    -0.85870
O2286       O  0.92484978  0.48771081  0.54671279    -0.87210
Zr2287     Zr  0.57608178  0.46178868  0.99498665     2.83100
Zr2288     Zr  0.96279170  0.02889482  0.96092258     2.83500
Zr2289     Zr  0.54212411  0.05265162  0.51695635     2.84090
Zr2290     Zr  0.49348405  0.43658990  0.94172840     2.83360
Zr2291     Zr  0.98440709  0.47102930  0.53788834     2.84220
O2292       O  0.96038068  0.47097843  0.98044227    -1.07780
O2293       O  0.54168918  0.49431936  0.53396267    -1.07280
C2294       C  0.55184467  0.43474589  0.58155395     1.07380
C2295       C  0.90465307  0.00940796  0.53174285     1.10000
C2296       C  0.62263102  0.01904855  0.54713358     1.07550
C2297       C  0.56278497  0.38051850  0.95904349     1.07910
C2298       C  0.91402099  0.47232776  0.91030812     1.07500
C2299       C  0.97374303  0.11184941  0.99181561     1.07050
C2300       C  0.50837687  0.04262265  0.60003747     1.07470
C2301       C  0.94961772  0.38699503  0.50275562     1.06990
H2302       H  0.97129752  0.04388654  0.53398238     0.33660
O2303       O  0.98507421  0.02928349  0.51866679    -1.28880
H2304       H  0.52000807  0.41412341  0.50805106     0.33690
O2305       O  0.51883202  0.43758210  0.99900840    -1.30260
C2306       C  0.76448711  0.01513002  0.60286750    -0.01700
O2307       O  0.67471445  0.19890976  0.77269231    -0.85700
O2308       O  0.75265226  0.27463485  0.60981403    -0.85870
O2309       O  0.65529542  0.27365024  0.69722531    -0.87540
O2310       O  0.70962206  0.17533190  0.66028716    -0.86290
O2311       O  0.76293241  0.15475770  0.67644198    -0.85880
O2312       O  0.66999638  0.32393640  0.72919563    -0.87250
O2313       O  0.70137169  0.24716811  0.62550898    -0.85730
O2314       O  0.66253027  0.19797051  0.71321502    -0.85320
Zr2315     Zr  0.70566392  0.23481724  0.68756189     2.84310
O2316       O  0.76288402  0.23316562  0.66732547    -1.07290
O2317       O  0.70518776  0.25801032  0.74514673    -1.08020
C2318       C  0.65363068  0.19242215  0.74518856     1.07410
C2319       C  0.72261527  0.25892288  0.60202668     1.07350
C2320       C  0.64788848  0.30325652  0.71294919     1.10330
C2321       C  0.73331660  0.15188122  0.66063014     1.08110
H2322       H  0.71463248  0.30668393  0.67011868     0.33670
O2323       O  0.72838450  0.29259035  0.68557847    -1.28250
H2324       H  0.72735766  0.17632061  0.72643227     0.33340
O2325       O  0.73772818  0.19974139  0.72538693    -1.29920
O2326       O  0.84528026  0.31981560  0.67197651    -0.85700
O2327       O  0.78019731  0.22480373  0.83384632    -0.87190
O2328       O  0.74202445  0.36917604  0.70757387    -0.85770
O2329       O  0.82055822  0.20389459  0.64500060    -0.85820
O2330       O  0.79174870  0.14827950  0.74799732    -0.85530
O2331       O  0.69944947  0.30829467  0.80296422    -0.85340
O2332       O  0.81333727  0.34144438  0.79371547    -0.85710
O2333       O  0.87400303  0.24649932  0.75721932    -0.85170
O2334       O  0.75898476  0.35775548  0.77724555    -0.86240
O2335       O  0.85383041  0.19916588  0.72504925    -0.85390
O2336       O  0.77297384  0.35148932  0.65943260    -0.85790
O2337       O  0.70983676  0.25443481  0.82647208    -0.85510
O2338       O  0.75175075  0.16239169  0.78950591    -0.85170
O2339       O  0.83425552  0.26170734  0.64139873    -0.85570
O2340       O  0.86327453  0.31584416  0.73024151    -0.85870
O2341       O  0.82528454  0.26404708  0.82308299    -0.87210
Zr2342     Zr  0.78633805  0.29078499  0.66657221     2.83100
Zr2343     Zr  0.73803340  0.22306244  0.78229353     2.83500
Zr2344     Zr  0.72917524  0.31508432  0.74390931     2.84090
Zr2345     Zr  0.79526761  0.19964285  0.70650968     2.83360
Zr2346     Zr  0.82015949  0.28259874  0.76294457     2.84220
O2347       O  0.79607474  0.22447645  0.76357854    -1.07780
O2348       O  0.78655122  0.31538536  0.72416664    -1.07280
C2349       C  0.86793437  0.32444496  0.69773101     1.07380
C2350       C  0.80935508  0.24166963  0.84279805     1.10000
C2351       C  0.75896459  0.37566289  0.67830234     1.07550
C2352       C  0.83231582  0.23108726  0.62769302     1.07910
C2353       C  0.77325045  0.14083534  0.77603918     1.07500
C2354       C  0.69688934  0.28476162  0.82761470     1.07050
C2355       C  0.78754154  0.36290828  0.79400533     1.07470
C2356       C  0.87842678  0.21621241  0.74123992     1.06990
H2357       H  0.76260578  0.29130937  0.80582693     0.33660
O2358       O  0.76224046  0.28118112  0.78208486    -1.28880
H2359       H  0.84193091  0.25653198  0.69985756     0.33690
O2360       O  0.81781458  0.25720637  0.70644885    -1.30260
C2361       C  0.64017564  0.24939324  0.96523992    -0.01700
C2362       C  0.51495244  0.37268131  0.71222267    -0.01700
C2363       C  0.88629676  0.23957064  0.98283110    -0.01700
C2364       C  0.77597092  0.50056393  0.85061527    -0.01700
C2365       C  0.65565293  0.26102831  0.92773652    -0.04550
C2366       C  0.64413014  0.24505724  0.89393009    -0.01670
C2367       C  0.64827450  0.26359058  0.86209376     0.03320
C2368       C  0.67543350  0.28887649  0.85958870    -0.04550
C2369       C  0.68993594  0.30278537  0.89145671    -0.01650
C2370       C  0.67398950  0.29455028  0.92393717     0.03320
C2371       C  0.62749907  0.21050715  0.88868729     0.37970
C2372       C  0.72418243  0.32010369  0.89205344     0.37960
C2373       C  0.67793097  0.32117103  0.95202110     0.36380
C2374       C  0.62901368  0.25232642  0.82999818     0.36380
N2375       N  0.68240970  0.34327440  0.97339426    -0.38440
N2376       N  0.61334233  0.24350677  0.80473190    -0.38440
N2377       N  0.75212291  0.33261504  0.89288936    -0.37880
N2378       N  0.61381923  0.18365428  0.88139061    -0.37880
C2379       C  0.70999072  0.25211418  0.56395264    -0.04550
C2380       C  0.71798228  0.27337337  0.53477538    -0.01670
C2381       C  0.70213331  0.26531156  0.50086487     0.03320
C2382       C  0.66797529  0.24810480  0.49832591    -0.04550
C2383       C  0.65978995  0.22872940  0.52995721    -0.01650
C2384       C  0.68479655  0.22490291  0.55705978     0.03320
C2385       C  0.73823153  0.30582715  0.53975192     0.37970
C2386       C  0.62513220  0.21841600  0.54109604     0.37960
C2387       C  0.68198143  0.19400740  0.57885617     0.36380
C2388       C  0.72527048  0.26798636  0.97126102     0.36380
N2389       N  0.67840438  0.16842163  0.59456187    -0.38440
N2390       N  0.74518683  0.27080695  0.94863917    -0.38440
N2391       N  0.59948577  0.21024986  0.55510914    -0.37880
N2392       N  0.75302714  0.33269809  0.54355370    -0.37880
C2393       C  0.82748986  0.23603481  0.87816409    -0.04550
C2394       C  0.86385830  0.24170455  0.88095629    -0.01670
C2395       C  0.88123145  0.24580245  0.91403414     0.03320
C2396       C  0.86392083  0.23786176  0.94660906    -0.04550
C2397       C  0.82753284  0.22587930  0.94264499    -0.01650
C2398       C  0.80978647  0.22655497  0.90904261     0.03320
C2399       C  0.88461514  0.23848015  0.84942968     0.37970
C2400       C  0.80786957  0.20960949  0.97089012     0.37960
C2401       C  0.77344665  0.21558446  0.90521335     0.36380
C2402       C  0.91765076  0.25721477  0.91264978     0.36380
N2403       N  0.74445914  0.20767873  0.89990279    -0.38440
N2404       N  0.94604587  0.26699181  0.90765906    -0.38440
N2405       N  0.79099588  0.19646452  0.99254063    -0.37880
N2406       N  0.90166503  0.23460122  0.82477119    -0.37880
C2407       C  0.84177383  0.22995777  0.58920879    -0.04550
C2408       C  0.83468139  0.25930753  0.56775080    -0.01670
C2409       C  0.84204539  0.25891042  0.53143108     0.03320
C2410       C  0.86234682  0.23237864  0.51632960    -0.04550
C2411       C  0.86201643  0.20015969  0.53578139    -0.01650
C2412       C  0.85582080  0.20044679  0.57266127     0.03320
C2413       C  0.82059337  0.29137803  0.58222324     0.37970
C2414       C  0.86410237  0.16594909  0.51821705     0.37960
C2415       C  0.86878239  0.17252372  0.59388932     0.36380
C2416       C  0.82092354  0.28064992  0.50961068     0.36380
N2417       N  0.88092938  0.15102732  0.61074068    -0.38440
N2418       N  0.80204067  0.29792165  0.49420996    -0.38440
N2419       N  0.86503644  0.13813383  0.50522816    -0.37880
N2420       N  0.80990994  0.31740889  0.59321338    -0.37880
C2421       C  0.77183532  0.47081035  0.81996583    -0.04550
C2422       C  0.74545041  0.44415982  0.82282225    -0.01670
C2423       C  0.75404628  0.40885917  0.82370367     0.03320
C2424       C  0.78746639  0.39777344  0.81251264    -0.04550
C2425       C  0.81203359  0.42408457  0.80306959    -0.01650
C2426       C  0.80136586  0.45923271  0.80067449     0.03320
C2427       C  0.70923450  0.45040713  0.81498505     0.37970
C2428       C  0.84565833  0.41458275  0.78928468     0.37960
C2429       C  0.80596008  0.47241117  0.76541302     0.36380
C2430       C  0.72613764  0.38442204  0.83369354     0.36380
N2431       N  0.81134002  0.48165201  0.73693125    -0.38440
N2432       N  0.70105004  0.36887624  0.84138364    -0.38440
N2433       N  0.87266997  0.40711656  0.77863440    -0.37880
N2434       N  0.67994727  0.45281824  0.80818862    -0.37880
C2435       C  0.77658435  0.10601779  0.79593308    -0.04550
C2436       C  0.76026851  0.10092810  0.82960510    -0.01670
C2437       C  0.76451982  0.06980487  0.84911036     0.03320
C2438       C  0.78075530  0.03957926  0.83386828    -0.04550
C2439       C  0.80296897  0.04810258  0.80463366    -0.01650
C2440       C  0.79828571  0.07877509  0.78420853     0.03320
C2441       C  0.73780489  0.12694293  0.84518902     0.37970
C2442       C  0.83613256  0.03159265  0.80020852     0.37960
C2443       C  0.81646103  0.08148095  0.75089526     0.36380
C2444       C  0.75456940  0.07087168  0.88639191     0.36380
N2445       N  0.83087797  0.08230012  0.72412751    -0.38440
N2446       N  0.74711307  0.07241754  0.91608699    -0.38440
N2447       N  0.86307483  0.01963183  0.79534531    -0.37880
N2448       N  0.71935033  0.14696475  0.85788946    -0.37880
C2449       C  0.90409263  0.33732759  0.69044050    -0.04550
C2450       C  0.91352349  0.37312003  0.69395578    -0.01670
C2451       C  0.94897649  0.38410301  0.69932289     0.03320
C2452       C  0.97586260  0.35901694  0.70463398    -0.04550
C2453       C  0.96481645  0.32257248  0.70184628    -0.01650
C2454       C  0.93034722  0.31256903  0.69128819     0.03320
C2455       C  0.88636228  0.39873729  0.69348142     0.37970
C2456       C  0.98669885  0.29440188  0.71231966     0.37960
C2457       C  0.92148211  0.27615715  0.68152171     0.36380
C2458       C  0.95637463  0.42162701  0.70237245     0.36380
N2459       N  0.91478167  0.24736520  0.67270223    -0.38440
N2460       N  0.96010615  0.45186868  0.70474971    -0.38440
N2461       N  0.00423267  0.27147023  0.71964902    -0.37880
N2462       N  0.86490187  0.41936361  0.69337043    -0.37880
C2463       C  0.61114430  0.31450101  0.71328103    -0.04550
C2464       C  0.59464333  0.32322738  0.74554063    -0.01670
C2465       C  0.55953747  0.33302974  0.74561305     0.03320
C2466       C  0.54267554  0.34198635  0.71338641    -0.04550
C2467       C  0.55659177  0.32490884  0.68233897    -0.01650
C2468       C  0.59150916  0.31480318  0.68181305     0.03320
C2469       C  0.61394804  0.32546818  0.77875647     0.37970
C2470       C  0.53432206  0.30723578  0.65559994     0.37960
C2471       C  0.60708371  0.30441264  0.64856349     0.36380
C2472       C  0.54039208  0.33030011  0.77849592     0.36380
N2473       N  0.61959061  0.29532678  0.62231994    -0.38440
N2474       N  0.52577324  0.32721182  0.80503014    -0.38440
N2475       N  0.51773522  0.29127824  0.63454827    -0.37880
N2476       N  0.62841219  0.32929611  0.80571625    -0.37880
C2477       C  0.76635209  0.48001858  0.62677025    -0.04550
C2478       C  0.78205449  0.44857823  0.61293388    -0.01670
C2479       C  0.78531958  0.41853205  0.63381301     0.03320
C2480       C  0.76379585  0.41287900  0.66367362    -0.04550
C2481       C  0.74957287  0.44350371  0.67873540    -0.01650
C2482       C  0.75635039  0.47718053  0.66347515     0.03320
C2483       C  0.79466828  0.44463358  0.57675303     0.37970
C2484       C  0.72969907  0.44119761  0.71097185     0.37960
C2485       C  0.75813382  0.50707653  0.68804304     0.36380
C2486       C  0.81463793  0.39643078  0.62653086     0.36380
N2487       N  0.75933515  0.53038576  0.70840018    -0.38440
N2488       N  0.83926865  0.38066888  0.62071705    -0.38440
N2489       N  0.71326019  0.43917910  0.73641934    -0.37880
N2490       N  0.80465536  0.43946844  0.54825883    -0.37880
C2491       C  0.73045462  0.11946651  0.63919201    -0.04550
C2492       C  0.71303099  0.08976175  0.65202176    -0.01670
C2493       C  0.72394631  0.05588852  0.64173097     0.03320
C2494       C  0.75735060  0.05103950  0.62420229    -0.04550
C2495       C  0.77597125  0.08342215  0.61570845    -0.01650
C2496       C  0.75868906  0.11529715  0.61681642     0.03320
C2497       C  0.68324903  0.09436552  0.67496962     0.37970
C2498       C  0.81131724  0.08636753  0.60281241     0.37960
C2499       C  0.77142243  0.14561922  0.59719582     0.36380
C2500       C  0.69949319  0.02703765  0.64901801     0.36380
N2501       N  0.78034659  0.16964706  0.58093625    -0.38440
N2502       N  0.67992648  0.00472673  0.65670790    -0.38440
N2503       N  0.83927680  0.09035058  0.59201220    -0.37880
N2504       N  0.65949367  0.09816720  0.69319939    -0.37880
C2505       C  0.56043654  0.41817987  0.61542303    -0.04550
C2506       C  0.56042378  0.43957177  0.64649830    -0.01670
C2507       C  0.54210433  0.42892066  0.67731261     0.03320
C2508       C  0.52471973  0.39499197  0.67792723    -0.04550
C2509       C  0.52059242  0.37851738  0.64357520    -0.01650
C2510       C  0.54542663  0.38483424  0.61762355     0.03320
C2511       C  0.58299248  0.47057440  0.64822966     0.37970
C2512       C  0.48795863  0.36210455  0.63090919     0.37960
C2513       C  0.55404647  0.35768509  0.59221339     0.36380
C2514       C  0.53743336  0.45580240  0.70443481     0.36380
N2515       N  0.56264057  0.33479497  0.57400178    -0.38440
N2516       N  0.53504714  0.47812716  0.72555651    -0.38440
N2517       N  0.46216756  0.34944170  0.61958415    -0.37880
N2518       N  0.60286269  0.99392619  0.65140070    -0.37880
C2519       C  0.51761428  0.39460374  0.75010236    -0.04550
C2520       C  0.54972676  0.41193667  0.76303046    -0.01670
C2521       C  0.55157113  0.43210204  0.79581037     0.03320
C2522       C  0.52306581  0.43321253  0.81914016    -0.04550
C2523       C  0.49207751  0.41450158  0.80801047    -0.01650
C2524       C  0.49000775  0.39404898  0.77595840     0.03320
C2525       C  0.58191370  0.40891458  0.74327024     0.37970
C2526       C  0.96100835  0.41523373  0.82985464     0.37960
C2527       C  0.96100022  0.36839337  0.77454451     0.36380
C2528       C  0.58314917  0.45199987  0.80560818     0.36380
N2529       N  0.93719847  0.34887658  0.77536005    -0.38440
N2530       N  0.60787725  0.46871109  0.81352179    -0.38440
N2531       N  0.93527671  0.41451035  0.84557924    -0.37880
N2532       N  0.60771648  0.40695162  0.72776770    -0.37880
C2533       C  0.67238026  0.49321073  0.90996219    -0.04550
C2534       C  0.70336985  0.48102543  0.92549174    -0.01450
C2535       C  0.73684905  0.48729979  0.90954488     0.03320
C2536       C  0.74029625  0.49930223  0.87372635    -0.04550
C2537       C  0.70861909  0.51186091  0.85848175    -0.01650
C2538       C  0.67659021  0.51123604  0.87712399     0.03320
C2539       C  0.70124578  0.46231529  0.95853903     0.37970
C2540       C  0.70792118  0.52540841  0.82240691     0.37960
C2541       C  0.64843769  0.53058201  0.86145127     0.36380
C2542       C  0.76705664  0.48321006  0.93192492     0.36380
N2543       N  0.62651602  0.54639826  0.84873443    -0.38440
N2544       N  0.79109420  0.47858820  0.94982580    -0.38440
N2545       N  0.70678674  0.53577312  0.79376420    -0.37880
N2546       N  0.69954750  0.44715303  0.48478549    -0.37880
C2547       C  0.81057341  0.49106471  0.87188825    -0.04550
C2548       C  0.83779881  0.01671556  0.87716666    -0.01670
C2549       C  0.87241286  0.00691356  0.87682225     0.03320
C2550       C  0.88174561  0.47323864  0.88766676    -0.04550
C2551       C  0.85504989  0.44728299  0.88902871    -0.01650
C2552       C  0.81985122  0.45555814  0.88073861     0.03320
C2553       C  0.83207337  0.05326612  0.88656674     0.37970
C2554       C  0.86395539  0.41218770  0.89900574     0.37960
C2555       C  0.79359374  0.42878715  0.88867619     0.36380
C2556       C  0.89804730  0.03349306  0.86686625     0.36380
N2557       N  0.77370159  0.40754380  0.89816295    -0.38440
N2558       N  0.91474878  0.05700696  0.85696596    -0.38440
N2559       N  0.87159950  0.38414766  0.90638665    -0.37880
N2560       N  0.83029601  0.08266767  0.89471803    -0.37880
C2561       C  0.73086160  0.01344132  0.57741523    -0.04550
C2562       C  0.70664562  0.48464871  0.57847261    -0.01670
C2563       C  0.67077775  0.49014516  0.57779765     0.03320
C2564       C  0.65728151  0.02182698  0.56518949    -0.04550
C2565       C  0.68111487  0.04899026  0.55650792    -0.01650
C2566       C  0.71743507  0.04492585  0.56171600     0.03320
C2567       C  0.71674191  0.44857348  0.57351717     0.37970
C2568       C  0.66842278  0.08071815  0.54084656     0.37960
C2569       C  0.74044967  0.07228287  0.54778990     0.36380
C2570       C  0.64827959  0.46128692  0.58917970     0.36380
N2571       N  0.75801023  0.09365691  0.53481731    -0.38440
N2572       N  0.63369868  0.43646678  0.59926062    -0.38440
N2573       N  0.65845355  0.10607583  0.02844347    -0.37880
N2574       N  0.72183642  0.41905331  0.56859344    -0.37880
C2575       C  0.86961216  0.01454688  0.54940005    -0.04550
C2576       C  0.83922938  0.02053790  0.52934303    -0.01670
C2577       C  0.80558028  0.01820334  0.54488051     0.03320
C2578       C  0.80121353  0.01710890  0.58272940    -0.04550
C2579       C  0.83296662  0.01465191  0.60309033    -0.01650
C2580       C  0.86587450  0.01123631  0.58664525     0.03320
C2581       C  0.84235305  0.02843728  0.99209798     0.37970
C2582       C  0.83279488  0.51720079  0.64159313     0.37960
C2583       C  0.89610033  0.50534793  0.60908572     0.36380
C2584       C  0.77644047  0.01317228  0.52068466     0.36380
N2585       N  0.91975190  0.50031433  0.62738028    -0.38440
N2586       N  0.75245530  0.00988894  0.50191332    -0.38440
N2587       N  0.83453935  0.51954854  0.67222103    -0.37880
N2588       N  0.84545650  0.03550314  0.96260255    -0.37880
C2589       C  0.95993992  0.14871154  0.98862315    -0.04550
C2590       C  0.94211443  0.15665546  0.95684106    -0.01670
C2591       C  0.91603999  0.18179266  0.95633875     0.03320
C2592       C  0.91446362  0.20885241  0.98340124    -0.04550
C2593       C  0.93631682  0.20322774  0.51446113    -0.01650
C2594       C  0.95669073  0.17251646  0.51758392     0.03320
C2595       C  0.94582041  0.13551728  0.92473718     0.37970
C2596       C  0.93599840  0.22740379  0.54494425     0.37960
C2597       C  0.97193344  0.16422468  0.55156674     0.36380
C2598       C  0.88708856  0.17226343  0.93229277     0.36380
N2599       N  0.48380702  0.15768113  0.57888940    -0.38440
N2600       N  0.86496340  0.16244815  0.91296953    -0.38440
N2601       N  0.93590991  0.24646871  0.56935103    -0.37880
N2602       N  0.94490891  0.11993486  0.89809516    -0.37880
C2603       C  0.90460509  0.27935686  0.98702269    -0.04550
C2604       C  0.88578448  0.31102831  0.98144391    -0.01670
C2605       C  0.89781006  0.34463306  0.99528938     0.03320
C2606       C  0.93258812  0.35056835  0.50679359    -0.04550
C2607       C  0.95403934  0.32112297  0.50522998    -0.01650
C2608       C  0.94112116  0.28692404  0.49376256     0.03320
C2609       C  0.86043970  0.31242458  0.95270072     0.37970
C2610       C  0.99099517  0.32696262  0.51127239     0.37960
C2611       C  0.96698266  0.26327709  0.48049715     0.36380
C2612       C  0.87535544  0.37448695  0.99346901     0.36380
N2613       N  0.98724871  0.24483686  0.46829435    -0.38440
N2614       N  0.85748053  0.39829968  0.99210329    -0.38440
N2615       N  0.52065205  0.33148014  0.51527489    -0.37880
N2616       N  0.84053720  0.31450433  0.92956435    -0.37880
C2617       C  0.62417782  0.21027057  0.96274243    -0.04550
C2618       C  0.58926682  0.20058610  0.97274169    -0.01670
C2619       C  0.57905144  0.16478315  0.97455288     0.03320
C2620       C  0.59722441  0.13843899  0.95577862    -0.04550
C2621       C  0.63186433  0.14694610  0.94685249    -0.01650
C2622       C  0.64622746  0.18129992  0.95449119     0.03320
C2623       C  0.56634610  0.22518454  0.49024214     0.37970
C2624       C  0.65368967  0.11952151  0.93308889     0.37960
C2625       C  0.68375930  0.18525821  0.95677715     0.36380
C2626       C  0.55950770  0.15562335  0.50592608     0.36380
N2627       N  0.71362972  0.18640859  0.96129076    -0.38440
N2628       N  0.54788673  0.15084847  0.53368099    -0.38440
N2629       N  0.67092109  0.09754827  0.92202126    -0.37880
N2630       N  0.54897705  0.24411582  0.50608130    -0.37880
C2631       C  0.61172071  0.27886175  0.97018015    -0.04550
C2632       C  0.58518253  0.28411921  0.94311367    -0.01670
C2633       C  0.56843203  0.31656206  0.94003952     0.03320
C2634       C  0.57728169  0.34478819  0.96321594    -0.04550
C2635       C  0.60012702  0.33884032  0.99218046    -0.01650
C2636       C  0.61455429  0.30577069  0.99722898     0.03320
C2637       C  0.57169961  0.25599310  0.91964593     0.37970
C2638       C  0.61133566  0.36731062  0.01666913     0.37960
C2639       C  0.63360233  0.30234682  0.03018514     0.36380
C2640       C  0.54296056  0.32125940  0.91183983     0.36380
N2641       N  0.64880709  0.30288114  0.05684444    -0.38440
N2642       N  0.52255916  0.32491003  0.88949751    -0.38440
N2643       N  0.62235552  0.38912218  0.53594376    -0.37880
N2644       N  0.55801948  0.23485250  0.90122265    -0.37880
C2645       C  0.50593636  0.05995693  0.63662217    -0.04550
C2646       C  0.97811854  0.08180214  0.64432692    -0.01670
C2647       C  0.98138277  0.10794777  0.67217688     0.03320
C2648       C  0.50614956  0.10503899  0.70160569    -0.04550
C2649       C  0.53404075  0.08200984  0.69262848    -0.01650
C2650       C  0.53590475  0.06534827  0.65843011     0.03320
C2651       C  0.94922960  0.08242685  0.61906161     0.37970
C2652       C  0.56221182  0.07444080  0.71666682     0.37960
C2653       C  0.56997877  0.06193899  0.64269188     0.36380
C2654       C  0.96406517  0.14013238  0.66422868     0.36380
N2655       N  0.59710478  0.06197518  0.62948913    -0.38440
N2656       N  0.95011333  0.16524732  0.65604567    -0.38440
N2657       N  0.58587619  0.06580301  0.73321350    -0.37880
N2658       N  0.92654501  0.08332868  0.59864439    -0.37880
C2659       C  0.48797968  0.07550400  0.84196357    -0.04550
C2660       C  0.48222901  0.05538121  0.81031307    -0.01670
C2661       C  0.48918836  0.07027725  0.77673497     0.03320
C2662       C  0.49589194  0.10744447  0.77434597    -0.04550
C2663       C  0.99349557  0.12702031  0.80762611    -0.01650
C2664       C  0.99870594  0.11057578  0.83939710     0.03320
C2665       C  0.47004362  0.01911845  0.81244901     0.37970
C2666       C  0.97010283  0.15537530  0.81347495     0.37960
C2667       C  0.01450162  0.13064330  0.86912146     0.36380
C2668       C  0.48654434  0.04704363  0.74586500     0.36380
N2669       N  0.02735965  0.14669879  0.89254849    -0.38440
N2670       N  0.48256600  0.02810898  0.72156449    -0.38440
N2671       N  0.95026853  0.17638855  0.82113878    -0.37880
N2672       N  0.45908616  0.99054669  0.81385465    -0.37880
C2673       C  0.91268468  0.19710361  0.73969040    -0.04550
C2674       C  0.94557204  0.21171903  0.75059893    -0.01670
C2675       C  0.97653073  0.19155728  0.74822982     0.03320
C2676       C  0.97438557  0.15448879  0.73849173    -0.04550
C2677       C  0.93962567  0.13991161  0.73367014    -0.01650
C2678       C  0.91192375  0.16157537  0.72696924     0.03320
C2679       C  0.94755208  0.24668689  0.76651685     0.37970
C2680       C  0.93073887  0.10241175  0.73209922     0.37960
C2681       C  0.88461510  0.14676537  0.70313863     0.36380
C2682       C  0.00786237  0.20735303  0.76471518     0.36380
N2683       N  0.86339798  0.13536895  0.68361466    -0.38440
N2684       N  0.03204333  0.22051516  0.77890580    -0.38440
N2685       N  0.91995154  0.07364101  0.73002182    -0.37880
N2686       N  0.94950641  0.27424217  0.78015942    -0.37880
C2687       C  0.54446336  0.14586548  0.74415887    -0.04550
C2688       C  0.55678686  0.17032832  0.71873742    -0.01670
C2689       C  0.59069505  0.18661505  0.72098914     0.03320
C2690       C  0.61566490  0.17829599  0.74771367    -0.04550
C2691       C  0.60472305  0.15352809  0.77269256    -0.01650
C2692       C  0.57044204  0.13698092  0.77091224     0.03320
C2693       C  0.53466900  0.18071816  0.68957999     0.37970
C2694       C  0.63016888  0.14221235  0.79847807     0.37960
C2695       C  0.56612489  0.10705265  0.79377758     0.36380
C2696       C  0.59934314  0.21154949  0.69360845     0.36380
N2697       N  0.56528967  0.08269393  0.81162971    -0.38440
N2698       N  0.60439730  0.22968646  0.66991059    -0.38440
N2699       N  0.65024227  0.13257171  0.81887058    -0.37880
N2700       N  0.51997677  0.19189086  0.66562178    -0.37880
C2701       C  0.00565407  0.62796191  0.23923872    -0.01700
O2702       O  0.97112918  0.55495157  0.40025170    -0.85700
O2703       O  0.63007619  0.97269578  0.45695962    -0.85870
O2704       O  0.57597340  0.58067249  0.43098355    -0.87540
O2705       O  0.54230965  0.97863527  0.36500842    -0.86290
O2706       O  0.50994251  0.92960165  0.38034498    -0.85880
O2707       O  0.58261273  0.59158210  0.49079162    -0.87250
O2708       O  0.61191424  0.00496067  0.41114124    -0.85730
O2709       O  0.52566054  0.54820761  0.37695334    -0.85320
Zr2710     Zr  0.55240853  0.51763845  0.42053129     2.84310
O2711       O  0.55145976  0.95935273  0.43832943    -1.07290
O2712       O  0.51935896  0.55285645  0.45898323    -1.08020
C2713       C  0.49461462  0.55821825  0.37542523     1.07410
C2714       C  0.63607234  0.98956270  0.42753793     1.07350
C2715       C  0.58493091  0.60081152  0.45861721     1.10330
C2716       C  0.52585312  0.94853401  0.35720742     1.08110
H2717       H  0.59968913  0.52941960  0.47694188     0.33670
O2718       O  0.57615309  0.51960422  0.47746221    -1.28250
H2719       H  0.98473744  0.99344539  0.39900980     0.33340
O2720       O  0.49503606  0.99419755  0.42249824    -1.29920
O2721       O  0.57400160  0.93659577  0.05565971    -0.85700
O2722       O  0.91277798  0.52628404  0.50307519    -0.87190
O2723       O  0.59998985  0.54396291  0.04758128    -0.85770
O2724       O  0.53072171  0.88464280  0.44868522    -0.85820
O2725       O  0.93561056  0.94645496  0.41080831    -0.85530
O2726       O  0.50320835  0.60500119  0.00763320    -0.85340
O2727       O  0.99185725  0.51258927  0.09193798    -0.85710
O2728       O  0.95591929  0.90922662  0.02959285    -0.85170
O2729       O  0.52692354  0.56057347  0.07823398    -0.86240
O2730       O  0.95829509  0.89266391  0.47048389    -0.85390
O2731       O  0.61916768  0.99011465  0.02970723    -0.85790
O2732       O  0.95411410  0.58833425  0.47627852    -0.85510
O2733       O  0.91776483  0.00064764  0.42872616    -0.85170
O2734       O  0.58397437  0.90562738  0.46857557    -0.85570
O2735       O  0.52019572  0.94437425  0.08040384    -0.85870
O2736       O  0.92484893  0.98771163  0.04671340    -0.87210
Zr2737     Zr  0.57608124  0.96178706  0.49498633     2.83100
Zr2738     Zr  0.96279264  0.52889450  0.46092245     2.83500
Zr2739     Zr  0.54212427  0.55265315  0.01695709     2.84090
Zr2740     Zr  0.49348320  0.93658858  0.44172797     2.83360
Zr2741     Zr  0.98440614  0.97102915  0.03788821     2.84220
O2742       O  0.96038002  0.97097701  0.48044209    -1.07780
O2743       O  0.54168815  0.99431957  0.03396270    -1.07280
C2744       C  0.55184407  0.93474520  0.08155362     1.07380
C2745       C  0.90465309  0.50940828  0.03174213     1.10000
C2746       C  0.62263133  0.51904948  0.04713445     1.07550
C2747       C  0.56278445  0.88051768  0.45904212     1.07910
C2748       C  0.91402026  0.97232686  0.41030812     1.07500
C2749       C  0.97374377  0.61184896  0.49181530     1.07050
C2750       C  0.50837658  0.54262523  0.10003813     1.07470
C2751       C  0.94961683  0.88699529  0.00275524     1.06990
H2752       H  0.97129743  0.54388805  0.03398245     0.33660
O2753       O  0.98507431  0.52928508  0.01866698    -1.28880
H2754       H  0.52000717  0.91412343  0.00805072     0.33690
O2755       O  0.51883145  0.93758047  0.49900793    -1.30260
C2756       C  0.76448772  0.51512914  0.10286745    -0.01700
O2757       O  0.67471477  0.69891241  0.27268768    -0.85700
O2758       O  0.75265171  0.77463644  0.10981256    -0.85870
O2759       O  0.65529226  0.77364189  0.19722743    -0.87540
O2760       O  0.70962474  0.67533179  0.16028435    -0.86290
O2761       O  0.76293478  0.65475789  0.17644036    -0.85880
O2762       O  0.66999227  0.82393026  0.22919501    -0.87250
O2763       O  0.70137155  0.74716928  0.12550786    -0.85730
O2764       O  0.66253831  0.69795991  0.21320915    -0.85320
Zr2765     Zr  0.70566517  0.73481613  0.18755998     2.84310
O2766       O  0.76288499  0.73316595  0.16732341    -1.07290
O2767       O  0.70518770  0.75800950  0.24514461    -1.08020
C2768       C  0.65363426  0.69241926  0.24518251     1.07410
C2769       C  0.72261479  0.75892439  0.10202547     1.07350
C2770       C  0.64788462  0.80324818  0.21295075     1.10330
C2771       C  0.73331920  0.65188119  0.16062809     1.08110
H2772       H  0.71463059  0.80668324  0.17011700     0.33670
O2773       O  0.72838320  0.79259020  0.18557678    -1.28250
H2774       H  0.72736000  0.67632017  0.22643062     0.33340
O2775       O  0.73772974  0.69974128  0.22538537    -1.29920
O2776       O  0.84527852  0.81981725  0.17197437    -0.85700
O2777       O  0.78019761  0.72480427  0.33384457    -0.87190
O2778       O  0.74202140  0.86917645  0.20757225    -0.85770
O2779       O  0.82055896  0.70389602  0.14499922    -0.85820
O2780       O  0.79174978  0.64828055  0.24799629    -0.85530
O2781       O  0.69944779  0.80829394  0.30296279    -0.85340
O2782       O  0.81333551  0.84144560  0.29371383    -0.85710
O2783       O  0.87400274  0.74650259  0.25721838    -0.85170
O2784       O  0.75898250  0.85775578  0.27724428    -0.86240
O2785       O  0.85383113  0.69916905  0.22504799    -0.85390
O2786       O  0.77297234  0.85149050  0.15943174    -0.85790
O2787       O  0.70983668  0.75443424  0.32647032    -0.85510
O2788       O  0.75175067  0.66239176  0.28950415    -0.85170
O2789       O  0.83425480  0.76170908  0.14139716    -0.85570
O2790       O  0.86327267  0.81584678  0.23023949    -0.85870
O2791       O  0.82528385  0.76404882  0.32308153    -0.87210
Zr2792     Zr  0.78633692  0.79078614  0.16657076     2.83100
Zr2793     Zr  0.73803395  0.72306269  0.28229167     2.83500
Zr2794     Zr  0.72917308  0.81508426  0.24390768     2.84090
Zr2795     Zr  0.79526872  0.69964391  0.20650820     2.83360
Zr2796     Zr  0.82015845  0.78260054  0.26294299     2.84220
O2797       O  0.79607527  0.72447773  0.26357695    -1.07780
O2798       O  0.78654921  0.81538631  0.22416517    -1.07280
C2799       C  0.86793247  0.82444708  0.19772882     1.07380
C2800       C  0.80935500  0.74167076  0.34279643     1.10000
C2801       C  0.75896232  0.87566377  0.17830123     1.07550
C2802       C  0.83231580  0.73108890  0.12769155     1.07910
C2803       C  0.77325102  0.64083586  0.27603775     1.07500
C2804       C  0.69688843  0.78476066  0.32761313     1.07050
C2805       C  0.78753946  0.86290900  0.29400385     1.07470
C2806       C  0.87842697  0.71621581  0.24123905     1.06990
H2807       H  0.76260456  0.79131002  0.30582520     0.33660
O2808       O  0.76223942  0.78118185  0.28208310    -1.28880
H2809       H  0.84193046  0.75653431  0.19985608     0.33690
O2810       O  0.81781410  0.75720808  0.20644736    -1.30260
C2811       C  0.64017495  0.74939292  0.46523913    -0.01700
C2812       C  0.51495164  0.87267762  0.21222137    -0.01700
C2813       C  0.88629708  0.73956977  0.48282942    -0.01700
C2814       C  0.77597018  0.00056392  0.35061599    -0.01700
C2815       C  0.65565202  0.76102757  0.42773550    -0.04550
C2816       C  0.64412957  0.74505562  0.39392936    -0.01670
C2817       C  0.64827441  0.76358793  0.36209248     0.03320
C2818       C  0.67543265  0.78887469  0.35958725    -0.04550
C2819       C  0.68993473  0.80278437  0.39145508    -0.01650
C2820       C  0.67398838  0.79454956  0.42393566     0.03320
C2821       C  0.62749768  0.71050579  0.38868752     0.37970
C2822       C  0.72418106  0.82010303  0.39205160     0.37960
C2823       C  0.67793020  0.82117038  0.45201948     0.36380
C2824       C  0.62901464  0.75232208  0.32999676     0.36380
N2825       N  0.68240929  0.84327372  0.47339261    -0.38440
N2826       N  0.61334410  0.74350098  0.30473043    -0.38440
N2827       N  0.75212148  0.83261455  0.39288733    -0.37880
N2828       N  0.61381690  0.68365314  0.38139186    -0.37880
C2829       C  0.70998997  0.75211592  0.06395169    -0.04550
C2830       C  0.71798143  0.77337522  0.03477452    -0.01670
C2831       C  0.70213245  0.76531336  0.00086413     0.03320
C2832       C  0.66797447  0.74810661  0.99832541    -0.04550
C2833       C  0.65978900  0.72873147  0.02995682    -0.01650
C2834       C  0.68479574  0.72490467  0.05705902     0.03320
C2835       C  0.73823099  0.80582883  0.03975088     0.37970
C2836       C  0.62513112  0.71841917  0.04109624     0.37960
C2837       C  0.68198033  0.69400922  0.07885552     0.36380
C2838       C  0.72526950  0.76798532  0.47125918     0.36380
N2839       N  0.67840298  0.66842360  0.09456142    -0.38440
N2840       N  0.74518535  0.77080509  0.44863677    -0.38440
N2841       N  0.59948456  0.71025400  0.05510964    -0.37880
N2842       N  0.75302691  0.83269963  0.04355241    -0.37880
C2843       C  0.82749007  0.73603574  0.37816234    -0.04550
C2844       C  0.86385846  0.74170606  0.38095456    -0.01670
C2845       C  0.88123175  0.74580291  0.41403248     0.03320
C2846       C  0.86392129  0.73786122  0.44660724    -0.04550
C2847       C  0.82753352  0.72587817  0.44264293    -0.01650
C2848       C  0.80978701  0.72655452  0.40904067     0.03320
C2849       C  0.88461527  0.73848343  0.34942772     0.37970
C2850       C  0.80787078  0.70960686  0.47088756     0.37960
C2851       C  0.77344741  0.71558325  0.40521138     0.36380
C2852       C  0.91765100  0.75721544  0.41264828     0.36380
N2853       N  0.74446001  0.70767688  0.39990111    -0.38440
N2854       N  0.94604600  0.76699280  0.40765752    -0.38440
N2855       N  0.79099745  0.69646067  0.49253763    -0.37880
N2856       N  0.90166531  0.73460586  0.32476912    -0.37880
C2857       C  0.84177382  0.72995930  0.08920736    -0.04550
C2858       C  0.83468123  0.75930889  0.06774923    -0.01670
C2859       C  0.84204479  0.75891139  0.03142943     0.03320
C2860       C  0.86234608  0.73237948  0.01632803    -0.04550
C2861       C  0.86201574  0.70016065  0.03578000    -0.01650
C2862       C  0.85582043  0.70044806  0.07265994     0.03320
C2863       C  0.82059327  0.79137948  0.08222150     0.37970
C2864       C  0.86410155  0.66594998  0.01821578     0.37960
C2865       C  0.86878136  0.67252476  0.09388816     0.36380
C2866       C  0.82092268  0.78065062  0.00960902     0.36380
N2867       N  0.88092751  0.65102827  0.11074004    -0.38440
N2868       N  0.80203971  0.79792224  0.99420831    -0.38440
N2869       N  0.86503554  0.63813471  0.00522691    -0.37880
N2870       N  0.80990983  0.81741037  0.09321155    -0.37880
C2871       C  0.77183407  0.97081073  0.31996625    -0.04550
C2872       C  0.74544902  0.94416025  0.32282256    -0.01670
C2873       C  0.75404460  0.90885952  0.32370302     0.03320
C2874       C  0.78746444  0.89777394  0.31251134    -0.04550
C2875       C  0.81203176  0.92408506  0.30306853    -0.01650
C2876       C  0.80136430  0.95923332  0.30067437     0.03320
C2877       C  0.70923318  0.95040775  0.31498544     0.37970
C2878       C  0.84565625  0.91458331  0.28928291     0.37960
C2879       C  0.80595849  0.97241269  0.26541327     0.36380
C2880       C  0.72613591  0.88442217  0.33369242     0.36380
N2881       N  0.81133848  0.98165423  0.23693176    -0.38440
N2882       N  0.70104841  0.86887592  0.34138202    -0.38440
N2883       N  0.87266770  0.90711725  0.27863201    -0.37880
N2884       N  0.67994599  0.95281899  0.30818896    -0.37880
C2885       C  0.77658504  0.60601819  0.29593159    -0.04550
C2886       C  0.76026967  0.60092845  0.32960385    -0.01670
C2887       C  0.76452106  0.56980511  0.34910901     0.03320
C2888       C  0.78075635  0.53957953  0.33386675    -0.04550
C2889       C  0.80296943  0.54810276  0.30463164    -0.01650
C2890       C  0.79828585  0.57877525  0.28420653     0.03320
C2891       C  0.73780613  0.62694317  0.34518795     0.37970
C2892       C  0.83613307  0.53159308  0.30020617     0.37960
C2893       C  0.81645985  0.58148063  0.25089248     0.36380
C2894       C  0.75457065  0.57087162  0.38639055     0.36380
N2895       N  0.83087549  0.58229942  0.22412398    -0.38440
N2896       N  0.74711425  0.57241719  0.41608562    -0.38440
N2897       N  0.86307549  0.51963263  0.29534290    -0.37880
N2898       N  0.71935149  0.64696478  0.35788857    -0.37880
C2899       C  0.90409080  0.83732860  0.19043774    -0.04550
C2900       C  0.91352302  0.87312065  0.19395328    -0.01670
C2901       C  0.94897641  0.88410213  0.19932046     0.03320
C2902       C  0.97586141  0.85901486  0.20463156    -0.04550
C2903       C  0.96481384  0.82257085  0.20184243    -0.01650
C2904       C  0.93034428  0.81256896  0.19128438     0.03320
C2905       C  0.88636285  0.89873900  0.19347897     0.37970
C2906       C  0.98669547  0.79439881  0.21231277     0.37960
C2907       C  0.92147764  0.77615752  0.18151715     0.36380
C2908       C  0.95637595  0.92162584  0.20237014     0.36380
N2909       N  0.91477615  0.74736589  0.17269728    -0.38440
N2910       N  0.96010829  0.95186742  0.20474732    -0.38440
N2911       N  0.00422890  0.77146593  0.21963892    -0.37880
N2912       N  0.86490328  0.91936619  0.19336791    -0.37880
C2913       C  0.61114011  0.81449113  0.21328238    -0.04550
C2914       C  0.59463894  0.82321949  0.24554126    -0.01670
C2915       C  0.55953358  0.83302336  0.24561240     0.03320
C2916       C  0.54267344  0.84198126  0.21338519    -0.04550
C2917       C  0.55658958  0.82490240  0.18233806    -0.01650
C2918       C  0.59150567  0.81479234  0.18181396     0.03320
C2919       C  0.61394309  0.82546133  0.27875741     0.37970
C2920       C  0.53432021  0.80723303  0.15559633     0.37960
C2921       C  0.60708058  0.80439916  0.14856524     0.36380
C2922       C  0.54038671  0.83029395  0.27849441     0.36380
N2923       N  0.61958804  0.79531273  0.12232210    -0.38440
N2924       N  0.52576655  0.82720574  0.30502789    -0.38440
N2925       N  0.51773394  0.79127773  0.13454254    -0.37880
N2926       N  0.62840679  0.82929031  0.30571733    -0.37880
C2927       C  0.76635074  0.98002035  0.12677039    -0.04550
C2928       C  0.78205314  0.94858017  0.11293372    -0.01670
C2929       C  0.78531767  0.91853349  0.13381233     0.03320
C2930       C  0.76379376  0.91288012  0.16367281    -0.04550
C2931       C  0.74957126  0.94350485  0.17873513    -0.01650
C2932       C  0.75634893  0.97718187  0.16347524     0.03320
C2933       C  0.79466759  0.94463629  0.07675303     0.37970
C2934       C  0.72969819  0.94119856  0.21097202     0.37960
C2935       C  0.75813225  0.00707770  0.18804339     0.36380
C2936       C  0.81463599  0.89643225  0.12653007     0.36380
N2937       N  0.75933354  0.03038685  0.20840062    -0.38440
N2938       N  0.83926678  0.88067049  0.12071616    -0.38440
N2939       N  0.71325999  0.93917992  0.23641996    -0.37880
N2940       N  0.80465512  0.93947188  0.04825887    -0.37880
C2941       C  0.73045699  0.61946621  0.13919068    -0.04550
C2942       C  0.71303308  0.58976195  0.15202116    -0.01670
C2943       C  0.72394796  0.55588843  0.14173107     0.03320
C2944       C  0.75735206  0.55103875  0.12420223    -0.04550
C2945       C  0.77597313  0.58342107  0.11570791    -0.01650
C2946       C  0.75869131  0.61529622  0.11681522     0.03320
C2947       C  0.68325120  0.59436658  0.17496895     0.37970
C2948       C  0.81131931  0.58636605  0.10281232     0.37960
C2949       C  0.77142483  0.64561780  0.09719398     0.36380
C2950       C  0.69949436  0.52703807  0.14901852     0.36380
N2951       N  0.78034895  0.66964528  0.08093388    -0.38440
N2952       N  0.67992722  0.50472763  0.15670872    -0.38440
N2953       N  0.83927903  0.59034887  0.09201248    -0.37880
N2954       N  0.65949590  0.59816895  0.19319864    -0.37880
C2955       C  0.56043635  0.91817875  0.11542248    -0.04550
C2956       C  0.56042359  0.93956988  0.14649828    -0.01670
C2957       C  0.54210503  0.92891751  0.17731274     0.03320
C2958       C  0.52472065  0.89498858  0.17792658    -0.04550
C2959       C  0.52059359  0.87851478  0.14357417    -0.01650
C2960       C  0.54542764  0.88483263  0.11762262     0.03320
C2961       C  0.58299192  0.97057274  0.14823016     0.37970
C2962       C  0.48795937  0.86210361  0.13090720     0.37960
C2963       C  0.55404825  0.85768412  0.09221208     0.36380
C2964       C  0.53743469  0.95579843  0.20443593     0.36380
N2965       N  0.56264302  0.83479463  0.07399999    -0.38440
N2966       N  0.53504873  0.97812276  0.22555818    -0.38440
N2967       N  0.46216804  0.84944196  0.11958148    -0.37880
N2968       N  0.60286229  0.49392943  0.15140008    -0.37880
C2969       C  0.51761352  0.89459966  0.25010158    -0.04550
C2970       C  0.54972635  0.91193128  0.26303046    -0.01670
C2971       C  0.55157068  0.93209726  0.29581011     0.03320
C2972       C  0.52306512  0.93320896  0.31913955    -0.04550
C2973       C  0.49207659  0.91449846  0.30800960    -0.01650
C2974       C  0.49000641  0.89404627  0.27595708     0.03320
C2975       C  0.58191347  0.90890778  0.24327086     0.37970
C2976       C  0.96100757  0.91523083  0.32985393     0.37960
C2977       C  0.96099699  0.86839288  0.27454173     0.36380
C2978       C  0.58314873  0.95199504  0.30560782     0.36380
N2979       N  0.93719352  0.84887815  0.27535611    -0.38440
N2980       N  0.60787656  0.96870658  0.31352153    -0.38440
N2981       N  0.93527614  0.91450775  0.34557891    -0.37880
N2982       N  0.60771639  0.90694352  0.22776878    -0.37880
C2983       C  0.67237979  0.99320980  0.40996268    -0.04550
C2984       C  0.70336947  0.98102501  0.42549249    -0.01450
C2985       C  0.73684864  0.98729938  0.40954562     0.03320
C2986       C  0.74029573  0.99930214  0.37372719    -0.04550
C2987       C  0.70861859  0.01186087  0.35848262    -0.01650
C2988       C  0.67658960  0.01123522  0.37712453     0.03320
C2989       C  0.70124552  0.96231539  0.45854010     0.37970
C2990       C  0.70792073  0.02540877  0.32240791     0.37960
C2991       C  0.64843668  0.03058027  0.36145133     0.36380
C2992       C  0.76705627  0.98320898  0.43192548     0.36380
N2993       N  0.62651464  0.04639571  0.34873409    -0.38440
N2994       N  0.79109370  0.97858659  0.44982638    -0.38440
N2995       N  0.70678629  0.03577374  0.29376529    -0.37880
N2996       N  0.69954669  0.94715778  0.98478958    -0.37880
C2997       C  0.81057268  0.99106433  0.37188867    -0.04550
C2998       C  0.83780031  0.51671548  0.37716472    -0.01670
C2999       C  0.87241426  0.50691308  0.37682066     0.03320
C3000       C  0.88174487  0.97323812  0.38766686    -0.04550
C3001       C  0.85504918  0.94728240  0.38902841    -0.01650
C3002       C  0.81985050  0.95555761  0.38073839     0.03320
C3003       C  0.83207519  0.55326612  0.38656465     0.37970
C3004       C  0.86395467  0.91218704  0.39900522     0.37960
C3005       C  0.79359301  0.92878651  0.38867554     0.36380
C3006       C  0.89804898  0.53349194  0.36686395     0.36380
N3007       N  0.77370084  0.90754302  0.39816196    -0.38440
N3008       N  0.91475087  0.55700523  0.35696297    -0.38440
N3009       N  0.87159882  0.88414700  0.40638606    -0.37880
N3010       N  0.83029787  0.58266769  0.39471588    -0.37880
C3011       C  0.73086189  0.51344087  0.07741559    -0.04550
C3012       C  0.70664496  0.98465056  0.07847202    -0.01670
C3013       C  0.67077703  0.99014654  0.07779705     0.03320
C3014       C  0.65728179  0.52182761  0.06519056    -0.04550
C3015       C  0.68111547  0.54899053  0.05650878    -0.01650
C3016       C  0.71743567  0.54492551  0.06171635     0.03320
C3017       C  0.71674160  0.94857554  0.07351585     0.37970
C3018       C  0.66842368  0.58071864  0.04084762     0.37960
C3019       C  0.74045054  0.57228193  0.04778959     0.36380
C3020       C  0.64827915  0.96128798  0.08917888     0.36380
N3021       N  0.75801134  0.59365542  0.03481646    -0.38440
N3022       N  0.63369832  0.93646768  0.09925955    -0.38440
N3023       N  0.65845561  0.60607406  0.52844269    -0.37880
N3024       N  0.72183631  0.91905549  0.06859153    -0.37880
C3025       C  0.86961221  0.51454654  0.04939943    -0.04550
C3026       C  0.83922932  0.52053764  0.02934264    -0.01670
C3027       C  0.80558035  0.51820231  0.04488027     0.03320
C3028       C  0.80121389  0.51710767  0.08272913    -0.04550
C3029       C  0.83296704  0.51465041  0.10308987    -0.01650
C3030       C  0.86587476  0.51123505  0.08664457     0.03320
C3031       C  0.84235328  0.52843532  0.49209729     0.37970
C3032       C  0.83279370  0.01720200  0.14159385     0.37960
C3033       C  0.89609934  0.00534972  0.10908651     0.36380
C3034       C  0.77644039  0.51317054  0.02068475     0.36380
N3035       N  0.91975092  0.00031618  0.12738107    -0.38440
N3036       N  0.75245486  0.50988654  0.00191397    -0.38440
N3037       N  0.83453806  0.01954927  0.17222177    -0.37880
N3038       N  0.84545659  0.53550182  0.46260198    -0.37880
C3039       C  0.95994049  0.64871097  0.48862229    -0.04550
C3040       C  0.94211467  0.65665428  0.45684015    -0.01670
C3041       C  0.91604061  0.68179195  0.45633730     0.03320
C3042       C  0.91446408  0.70885173  0.48339969    -0.04550
C3043       C  0.93631606  0.70322879  0.01446023    -0.01650
C3044       C  0.95668993  0.67251755  0.01758340     0.03320
C3045       C  0.94581960  0.63551497  0.42473685     0.37970
C3046       C  0.93599746  0.72740502  0.04494320     0.37960
C3047       C  0.97193196  0.66422574  0.05156654     0.36380
C3048       C  0.88708975  0.67226359  0.43229028     0.36380
N3049       N  0.48380490  0.65768208  0.07888946    -0.38440
N3050       N  0.86496518  0.66244889  0.41296608    -0.38440
N3051       N  0.93590883  0.74647008  0.06934987    -0.37880
N3052       N  0.94490653  0.61993188  0.39809522    -0.37880
C3053       C  0.90460522  0.77935593  0.48702144    -0.04550
C3054       C  0.88578435  0.81102732  0.48144334    -0.01670
C3055       C  0.89780978  0.84463184  0.49528935     0.03320
C3056       C  0.93258735  0.85056866  0.00679302    -0.04550
C3057       C  0.95403870  0.82112339  0.00522913    -0.01650
C3058       C  0.94112059  0.78692460  0.99376129     0.03320
C3059       C  0.86043973  0.81242403  0.45270007     0.37970
C3060       C  0.99099454  0.82696306  0.01127176     0.37960
C3061       C  0.96698210  0.76327774  0.98049573     0.36380
C3062       C  0.87535502  0.87448568  0.49346951     0.36380
N3063       N  0.98724806  0.74483749  0.96829281    -0.38440
N3064       N  0.85748000  0.89829836  0.49210416    -0.38440
N3065       N  0.52065140  0.83148068  0.01527453    -0.37880
N3066       N  0.84053738  0.81450414  0.42956361    -0.37880
C3067       C  0.62417757  0.71027017  0.46274224    -0.04550
C3068       C  0.58926664  0.70058551  0.47274150    -0.01670
C3069       C  0.57905180  0.66478254  0.47455332     0.03320
C3070       C  0.59722498  0.63843854  0.45577916    -0.04550
C3071       C  0.63186481  0.64694577  0.44685296    -0.01650
C3072       C  0.64622760  0.68129972  0.45449131     0.03320
C3073       C  0.56634535  0.72518630  0.99024178     0.37970
C3074       C  0.65369033  0.61952125  0.43308945     0.37960
C3075       C  0.68375944  0.68525841  0.45677675     0.36380
C3076       C  0.55950695  0.65562530  0.00592672     0.36380
N3077       N  0.71362994  0.68640898  0.46128981    -0.38440
N3078       N  0.54788555  0.65085085  0.03368152    -0.38440
N3079       N  0.67092187  0.59754807  0.42202190    -0.37880
N3080       N  0.54897612  0.74411786  0.00608038    -0.37880
C3081       C  0.61172002  0.77886126  0.47017942    -0.04550
C3082       C  0.58518183  0.78411854  0.44311292    -0.01670
C3083       C  0.56843132  0.81656131  0.44003866     0.03320
C3084       C  0.57728129  0.84478759  0.46321473    -0.04550
C3085       C  0.60012696  0.83884011  0.49217904    -0.01650
C3086       C  0.61455378  0.80577040  0.49722810     0.03320
C3087       C  0.57169892  0.75599239  0.41964524     0.37970
C3088       C  0.61133649  0.86731084  0.51666682     0.37960
C3089       C  0.63360081  0.80234650  0.53018499     0.36380
C3090       C  0.54295969  0.82125847  0.41183905     0.36380
N3091       N  0.64880418  0.80288078  0.55684515    -0.38440
N3092       N  0.52255818  0.82490896  0.38949680    -0.38440
N3093       N  0.62235757  0.88912494  0.03594056    -0.37880
N3094       N  0.55801865  0.73485187  0.40122196    -0.37880
C3095       C  0.50593614  0.55995994  0.13662300    -0.04550
C3096       C  0.97811768  0.58180430  0.14432840    -0.01670
C3097       C  0.98138163  0.60795054  0.17217802     0.03320
C3098       C  0.50614948  0.60504338  0.20160607    -0.04550
C3099       C  0.53404115  0.58201492  0.19262856    -0.01650
C3100       C  0.53590485  0.56535254  0.15843045     0.03320
C3101       C  0.94922788  0.58242737  0.11906403     0.37970
C3102       C  0.56221275  0.57444716  0.21666683     0.37960
C3103       C  0.56997876  0.56194297  0.14269210     0.36380
C3104       C  0.96406309  0.64013451  0.16422963     0.36380
N3105       N  0.59710474  0.56197890  0.12948932    -0.38440
N3106       N  0.95011048  0.66524886  0.15604620    -0.38440
N3107       N  0.58587732  0.56581075  0.23321404    -0.37880
N3108       N  0.92654254  0.58332784  0.09864753    -0.37880
C3109       C  0.48798102  0.57550438  0.34196346    -0.04550
C3110       C  0.48223207  0.55538329  0.31031185    -0.01670
C3111       C  0.48919107  0.57028131  0.27673457     0.03320
C3112       C  0.49589371  0.60744904  0.27434679    -0.04550
C3113       C  0.99349859  0.62702309  0.30762869    -0.01650
C3114       C  0.99870494  0.61057678  0.33939976     0.03320
C3115       C  0.47004750  0.51912009  0.31244588     0.37970
C3116       C  0.97012588  0.65539478  0.31347834     0.37960
C3117       C  0.01450026  0.63064190  0.36912627     0.36380
C3118       C  0.48654575  0.54704873  0.24586380     0.36380
N3119       N  0.02735804  0.64669562  0.39255464    -0.38440
N3120       N  0.48256579  0.52811474  0.22156297    -0.38440
N3121       N  0.95030654  0.67642125  0.32114630    -0.37880
N3122       N  0.45909056  0.49054802  0.31384990    -0.37880
C3123       C  0.91268475  0.69710727  0.23969010    -0.04550
C3124       C  0.94557223  0.71172378  0.25059636    -0.01670
C3125       C  0.97653126  0.69156279  0.24822568     0.03320
C3126       C  0.97438572  0.65449324  0.23849217    -0.04550
C3127       C  0.93962587  0.63991538  0.23367302    -0.01650
C3128       C  0.91192377  0.66157840  0.22697105     0.03320
C3129       C  0.94755211  0.74669170  0.26651412     0.37970
C3130       C  0.93073906  0.60241554  0.23210460     0.37960
C3131       C  0.88461540  0.64676716  0.20314078     0.36380
C3132       C  0.00786451  0.70736104  0.26470584     0.36380
N3133       N  0.86339872  0.63537002  0.18361670    -0.38440
N3134       N  0.03204671  0.72052498  0.27889263    -0.38440
N3135       N  0.91995109  0.57364491  0.23002957    -0.37880
N3136       N  0.94950662  0.77424694  0.28015674    -0.37880
C3137       C  0.54446384  0.64587101  0.24415702    -0.04550
C3138       C  0.55678857  0.67032973  0.21873154    -0.01670
C3139       C  0.59070075  0.68660861  0.22097584     0.03320
C3140       C  0.61566777  0.67829551  0.24770582    -0.04550
C3141       C  0.60472243  0.65353644  0.27269178    -0.01650
C3142       C  0.57044199  0.63698885  0.27091170     0.03320
C3143       C  0.53466772  0.68072393  0.18957828     0.37970
C3144       C  0.63016503  0.64222831  0.29848453     0.37960
C3145       C  0.56612585  0.60706157  0.29377851     0.36380
C3146       C  0.59935695  0.71152666  0.19358167     0.36380
N3147       N  0.56529190  0.58270373  0.31163185    -0.38440
N3148       N  0.60442256  0.72965078  0.16987575    -0.38440
N3149       N  0.65023580  0.63259395  0.31888310    -0.37880
N3150       N  0.51997153  0.69190009  0.16562438    -0.37880
C3151       C  0.00565498  0.62796675  0.73923801    -0.01700
O3152       O  0.97112831  0.55495291  0.90025099    -0.85700
O3153       O  0.63007676  0.97269714  0.95696111    -0.85870
O3154       O  0.57597255  0.58067364  0.93098411    -0.87540
O3155       O  0.54231017  0.97863443  0.86500872    -0.86290
O3156       O  0.50994289  0.92960114  0.88034590    -0.85880
O3157       O  0.58261167  0.59158240  0.99079230    -0.87250
O3158       O  0.61191487  0.00496153  0.91114237    -0.85730
O3159       O  0.52565971  0.54820873  0.87695278    -0.85320
Zr3160     Zr  0.55240761  0.51763989  0.92053123     2.84310
O3161       O  0.55146044  0.95935337  0.93833021    -1.07290
O3162       O  0.51935752  0.55285756  0.95898292    -1.08020
C3163       C  0.49461385  0.55821959  0.87542451     1.07410
C3164       C  0.63607297  0.98956398  0.92753945     1.07350
C3165       C  0.58493005  0.60081222  0.95861806     1.10330
C3166       C  0.52585362  0.94853295  0.85720797     1.08110
H3167       H  0.59968795  0.52942041  0.97694190     0.33670
O3168       O  0.57615191  0.51960502  0.97746213    -1.28250
H3169       H  0.98473794  0.99344597  0.89901036     0.33340
O3170       O  0.49503656  0.99419825  0.92249878    -1.29920
O3171       O  0.57400076  0.93659379  0.55565882    -0.85700
O3172       O  0.91277656  0.52628466  0.00307462    -0.87190
O3173       O  0.59999143  0.54396219  0.54758157    -0.85770
O3174       O  0.53072235  0.88464372  0.94868672    -0.85820
O3175       O  0.93561125  0.94645594  0.91080918    -0.85530
O3176       O  0.50321015  0.60500067  0.50763376    -0.85340
O3177       O  0.99185848  0.51259059  0.59193866    -0.85710
O3178       O  0.95591885  0.90922510  0.52959179    -0.85170
O3179       O  0.52692551  0.56057415  0.57823434    -0.86240
O3180       O  0.95829542  0.89266516  0.97048499    -0.85390
O3181       O  0.61916712  0.99011359  0.52970621    -0.85790
O3182       O  0.95411228  0.58833477  0.97627804    -0.85510
O3183       O  0.91776525  0.00064823  0.92872792    -0.85170
O3184       O  0.58397478  0.90562797  0.96857815    -0.85570
O3185       O  0.52019489  0.94437212  0.58040302    -0.85870
O3186       O  0.92484825  0.98771091  0.54671301    -0.87210
Zr3187     Zr  0.57608173  0.96178839  0.99498723     2.83100
Zr3188     Zr  0.96279128  0.52889519  0.96092171     2.83500
Zr3189     Zr  0.54212595  0.55265270  0.51695736     2.84090
Zr3190     Zr  0.49348383  0.93658942  0.94172894     2.83360
Zr3191     Zr  0.98440540  0.97102747  0.53788711     2.84220
O3192       O  0.96038092  0.97097813  0.98044312    -1.07780
O3193       O  0.54168736  0.99431815  0.53396162    -1.07280
C3194       C  0.55184326  0.93474302  0.58155282     1.07380
C3195       C  0.90465448  0.50940753  0.53174256     1.10000
C3196       C  0.62263273  0.51904861  0.54713489     1.07550
C3197       C  0.56278490  0.88051842  0.95904412     1.07910
C3198       C  0.91402078  0.97232770  0.91030949     1.07500
C3199       C  0.97374191  0.61184951  0.99181481     1.07050
C3200       C  0.50837810  0.54262659  0.60003868     1.07470
C3201       C  0.94961659  0.88699387  0.50275414     1.06990
H3202       H  0.97129898  0.54388813  0.53398298     0.33660
O3203       O  0.98507583  0.52928501  0.51866762    -1.28880
H3204       H  0.52000665  0.91412196  0.50804947     0.33690
O3205       O  0.51883198  0.93758187  0.99900901    -1.30260
C3206       C  0.76448939  0.51512789  0.60286722    -0.01700
O3207       O  0.67471538  0.69891507  0.77268351    -0.85700
O3208       O  0.75265143  0.77463719  0.60981151    -0.85870
O3209       O  0.65528950  0.77363296  0.69723107    -0.87540
O3210       O  0.70962843  0.67533133  0.66028215    -0.86290
O3211       O  0.76293795  0.65475747  0.67643974    -0.85880
O3212       O  0.66998867  0.82392354  0.72919593    -0.87250
O3213       O  0.70137150  0.74717020  0.62550747    -0.85730
O3214       O  0.66254736  0.69794807  0.71320362    -0.85320
Zr3215     Zr  0.70566693  0.73481465  0.68755883     2.84310
O3216       O  0.76288644  0.73316579  0.66732218    -1.07290
O3217       O  0.70518807  0.75800828  0.74514333    -1.08020
C3218       C  0.65363843  0.69241586  0.74517678     1.07410
C3219       C  0.72261442  0.75892517  0.60202477     1.07350
C3220       C  0.64788119  0.80323922  0.71295398     1.10330
C3221       C  0.73332270  0.65188070  0.66062680     1.08110
H3222       H  0.71462915  0.80668220  0.67011642     0.33670
O3223       O  0.72838241  0.79258969  0.68557612    -1.28250
H3224       H  0.72736284  0.67631939  0.72642968     0.33340
O3225       O  0.73773179  0.69974083  0.72538459    -1.29920
O3226       O  0.84527747  0.81981832  0.67197321    -0.85700
O3227       O  0.78019815  0.72480505  0.83384377    -0.87190
O3228       O  0.74201860  0.86917669  0.70757238    -0.85770
O3229       O  0.82056062  0.70389694  0.64499904    -0.85820
O3230       O  0.79175120  0.64828126  0.74799626    -0.85530
O3231       O  0.69944685  0.80829222  0.80296271    -0.85340
O3232       O  0.81333480  0.84144640  0.79371286    -0.85710
O3233       O  0.87400324  0.74650577  0.75721834    -0.85170
O3234       O  0.75898144  0.85775599  0.77724349    -0.86240
O3235       O  0.85383223  0.69917212  0.72504811    -0.85390
O3236       O  0.77297080  0.85149121  0.65943252    -0.85790
O3237       O  0.70983714  0.75443258  0.82646974    -0.85510
O3238       O  0.75175029  0.66239133  0.78950276    -0.85170
O3239       O  0.83425447  0.76171043  0.64139605    -0.85570
O3240       O  0.86327134  0.81584909  0.73023854    -0.85870
O3241       O  0.82528348  0.76405072  0.82308098    -0.87210
Zr3242     Zr  0.78633620  0.79078679  0.66656999     2.83100
Zr3243     Zr  0.73803495  0.72306256  0.78229057     2.83500
Zr3244     Zr  0.72917148  0.81508375  0.74390724     2.84090
Zr3245     Zr  0.79527033  0.69964458  0.70650768     2.83360
Zr3246     Zr  0.82015799  0.78260187  0.76294218     2.84220
O3247       O  0.79607635  0.72447853  0.76357635    -1.07780
O3248       O  0.78654764  0.81538660  0.72416449    -1.07280
C3249       C  0.86793122  0.82444879  0.69772772     1.07380
C3250       C  0.80935497  0.74167242  0.84279588     1.10000
C3251       C  0.75896031  0.87566432  0.67830187     1.07550
C3252       C  0.83231663  0.73108991  0.62769105     1.07910
C3253       C  0.77325153  0.64083598  0.77603703     1.07500
C3254       C  0.69688819  0.78475865  0.82761288     1.07050
C3255       C  0.78753860  0.86290948  0.79400290     1.07470
C3256       C  0.87842777  0.71621907  0.74123915     1.06990
H3257       H  0.76260398  0.79131023  0.80582449     0.33660
O3258       O  0.76223899  0.78118215  0.78208236    -1.28880
H3259       H  0.84193047  0.75653619  0.69985522     0.33690
O3260       O  0.81781411  0.75720937  0.70644659    -1.30260
C3261       C  0.64017458  0.74939300  0.96524033    -0.01700
C3262       C  0.51495162  0.87267390  0.71222164    -0.01700
C3263       C  0.88629594  0.73957139  0.98282974    -0.01700
C3264       C  0.77597026  0.00056418  0.85061790    -0.01700
C3265       C  0.65565090  0.76102684  0.92773611    -0.04550
C3266       C  0.64412826  0.74505396  0.89393036    -0.01670
C3267       C  0.64827476  0.76358439  0.86209254     0.03320
C3268       C  0.67543249  0.78887176  0.85958717    -0.04550
C3269       C  0.68993398  0.80278250  0.89145478    -0.01650
C3270       C  0.67398734  0.79454859  0.92393540     0.03320
C3271       C  0.62749346  0.71050528  0.88868994     0.37970
C3272       C  0.72418007  0.82010170  0.89205125     0.37960
C3273       C  0.67792846  0.82117042  0.95201833     0.36380
C3274       C  0.62901642  0.75231664  0.82999649     0.36380
N3275       N  0.68240705  0.84327460  0.97339067    -0.38440
N3276       N  0.61334699  0.74349391  0.80472998    -0.38440
N3277       N  0.75212027  0.83261374  0.89288708    -0.37880
N3278       N  0.61381005  0.68365358  0.88139571    -0.37880
C3279       C  0.70998903  0.75211641  0.56395116    -0.04550
C3280       C  0.71798150  0.77337449  0.53477331    -0.01670
C3281       C  0.70213266  0.76531200  0.50086301     0.03320
C3282       C  0.66797412  0.74810660  0.49832464    -0.04550
C3283       C  0.65978768  0.72873243  0.52995635    -0.01650
C3284       C  0.68479384  0.72490578  0.55705916     0.03320
C3285       C  0.73823196  0.80582763  0.53974872     0.37970
C3286       C  0.62512933  0.71842127  0.54109528     0.37960
C3287       C  0.68197671  0.69401130  0.57885695     0.36380
C3288       C  0.72526937  0.76798830  0.97126061     0.36380
N3289       N  0.67839782  0.66842660  0.59456408    -0.38440
N3290       N  0.74518588  0.77080978  0.94863904    -0.38440
N3291       N  0.59948236  0.71025729  0.55510857    -0.37880
N3292       N  0.75302856  0.83269817  0.54354936    -0.37880
C3293       C  0.82748966  0.73603811  0.87816213    -0.04550
C3294       C  0.86385806  0.74170824  0.88095468    -0.01670
C3295       C  0.88123110  0.74580489  0.91403280     0.03320
C3296       C  0.86392027  0.73786342  0.94660744    -0.04550
C3297       C  0.82753222  0.72588140  0.94264290    -0.01650
C3298       C  0.80978600  0.72655808  0.90904050     0.03320
C3299       C  0.88461509  0.73848619  0.84942792     0.37970
C3300       C  0.80786880  0.70961082  0.97088748     0.37960
C3301       C  0.77344567  0.71558939  0.90521125     0.36380
C3302       C  0.91765058  0.75721673  0.91264902     0.36380
N3303       N  0.74445769  0.70768551  0.89990093    -0.38440
N3304       N  0.94604586  0.76699347  0.90765874    -0.38440
N3305       N  0.79099505  0.69646521  0.99253756    -0.37880
N3306       N  0.90166520  0.73460917  0.82476927    -0.37880
C3307       C  0.84177520  0.72995968  0.58920707    -0.04550
C3308       C  0.83468232  0.75930864  0.56774818    -0.01670
C3309       C  0.84204562  0.75891009  0.53142837     0.03320
C3310       C  0.86234738  0.73237818  0.51632778    -0.04550
C3311       C  0.86201746  0.70015983  0.53578049    -0.01650
C3312       C  0.85582186  0.70044802  0.57266039     0.03320
C3313       C  0.82059409  0.79137949  0.58221956     0.37970
C3314       C  0.86410393  0.66594886  0.51821700     0.37960
C3315       C  0.86878155  0.67252456  0.59388923     0.36380
C3316       C  0.82092273  0.78064784  0.50960719     0.36380
N3317       N  0.88092634  0.65102772  0.61074170    -0.38440
N3318       N  0.80203929  0.79791814  0.49420552    -0.38440
N3319       N  0.86503846  0.63813343  0.50522860    -0.37880
N3320       N  0.80991053  0.81741054  0.59320906    -0.37880
C3321       C  0.77183331  0.97081057  0.81996863    -0.04550
C3322       C  0.74544860  0.94415966  0.82282586    -0.01670
C3323       C  0.75404433  0.90885885  0.82370421     0.03320
C3324       C  0.78746377  0.89777403  0.81251097    -0.04550
C3325       C  0.81203062  0.92408556  0.80306815    -0.01650
C3326       C  0.80136294  0.95923383  0.80067546     0.03320
C3327       C  0.70923208  0.95040685  0.81499186     0.37970
C3328       C  0.84565485  0.91458448  0.78928137     0.37960
C3329       C  0.80595664  0.97241482  0.76541496     0.36380
C3330       C  0.72613602  0.88442066  0.83369282     0.36380
N3331       N  0.81133638  0.98165781  0.73693390    -0.38440
N3332       N  0.70104855  0.86887386  0.84138150    -0.38440
N3333       N  0.87266616  0.90711907  0.77862961    -0.37880
N3334       N  0.67994431  0.95281739  0.80819781    -0.37880
C3335       C  0.77658532  0.60601820  0.79593080    -0.04550
C3336       C  0.76027058  0.60092873  0.82960344    -0.01670
C3337       C  0.76452082  0.56980474  0.84910799     0.03320
C3338       C  0.78075568  0.53957900  0.83386544    -0.04550
C3339       C  0.80296850  0.54810210  0.80463004    -0.01650
C3340       C  0.79828505  0.57877470  0.78420506     0.03320
C3341       C  0.73780951  0.62694489  0.84518895     0.37970
C3342       C  0.83613218  0.53159260  0.80020448     0.37960
C3343       C  0.81645828  0.58147978  0.75089053     0.36380
C3344       C  0.75457019  0.57087087  0.88638947     0.36380
N3345       N  0.83087320  0.58229849  0.72412162    -0.38440
N3346       N  0.74711357  0.57241623  0.91608449    -0.38440
N3347       N  0.86307474  0.51963246  0.79534116    -0.37880
N3348       N  0.71935691  0.64696771  0.85789083    -0.37880
C3349       C  0.90408974  0.83732930  0.69043638    -0.04550
C3350       C  0.91352328  0.87312099  0.69395230    -0.01670
C3351       C  0.94897701  0.88410107  0.69931982     0.03320
C3352       C  0.97586096  0.85901273  0.70463115    -0.04550
C3353       C  0.96481199  0.82256913  0.70184097    -0.01650
C3354       C  0.93034222  0.81256867  0.69128254     0.03320
C3355       C  0.88636414  0.89874042  0.69347772     0.37970
C3356       C  0.98669273  0.79439581  0.71230913     0.37960
C3357       C  0.92147431  0.77615767  0.68151440     0.36380
C3358       C  0.95637795  0.92162448  0.70236951     0.36380
N3359       N  0.91477197  0.74736638  0.67269390    -0.38440
N3360       N  0.96011130  0.95186595  0.70474656    -0.38440
N3361       N  0.00422569  0.77146187  0.71963287    -0.37880
N3362       N  0.86490543  0.91936852  0.69336636    -0.37880
C3363       C  0.61113641  0.81448067  0.71328555    -0.04550
C3364       C  0.59463514  0.82321119  0.74554375    -0.01670
C3365       C  0.55953042  0.83301709  0.74561363     0.03320
C3366       C  0.54267202  0.84197609  0.71338580    -0.04550
C3367       C  0.55658793  0.82489560  0.68233907    -0.01650
C3368       C  0.59150269  0.81478116  0.68181672     0.03320
C3369       C  0.61393874  0.82545367  0.77876020     0.37970
C3370       C  0.53431880  0.80722939  0.65559512     0.37960
C3371       C  0.60707813  0.80438610  0.64856865     0.36380
C3372       C  0.54038217  0.83028836  0.77849487     0.36380
N3373       N  0.61958650  0.79530015  0.62232574    -0.38440
N3374       N  0.52576077  0.82720053  0.80502770    -0.38440
N3375       N  0.51773302  0.79127591  0.63453958    -0.37880
N3376       N  0.62840198  0.82928336  0.80572030    -0.37880
C3377       C  0.76634987  0.98002073  0.62677069    -0.04550
C3378       C  0.78205208  0.94858037  0.61293433    -0.01670
C3379       C  0.78531616  0.91853375  0.63381306     0.03320
C3380       C  0.76379227  0.91288078  0.66367365    -0.04550
C3381       C  0.74957116  0.94350601  0.67873651    -0.01650
C3382       C  0.75634861  0.97718283  0.66347582     0.03320
C3383       C  0.79466700  0.94463619  0.57675385     0.37970
C3384       C  0.72970116  0.94120059  0.71097552     0.37960
C3385       C  0.75813182  0.00707932  0.68804319     0.36380
C3386       C  0.81463447  0.89643237  0.62653114     0.36380
N3387       N  0.75933306  0.03038909  0.70839971    -0.38440
N3388       N  0.83926519  0.88067044  0.62071747    -0.38440
N3389       N  0.71326593  0.93918304  0.73642556    -0.37880
N3390       N  0.80465497  0.93947130  0.54825994    -0.37880
C3391       C  0.73046037  0.61946558  0.63918989    -0.04550
C3392       C  0.71303626  0.58976166  0.65202080    -0.01670
C3393       C  0.72395064  0.55588795  0.64173089     0.03320
C3394       C  0.75735448  0.55103777  0.62420179    -0.04550
C3395       C  0.77597587  0.58341989  0.61570694    -0.01650
C3396       C  0.75869449  0.61529526  0.61681439     0.03320
C3397       C  0.68325463  0.59436682  0.67496882     0.37970
C3398       C  0.81132167  0.58636456  0.60281019     0.37960
C3399       C  0.77142787  0.64561664  0.59719274     0.36380
C3400       C  0.69949659  0.52703799  0.64901845     0.36380
N3401       N  0.78035174  0.66964401  0.58093236    -0.38440
N3402       N  0.67992909  0.50472790  0.65670874    -0.38440
N3403       N  0.83928100  0.59034719  0.59200924    -0.37880
N3404       N  0.65949954  0.59816963  0.69319870    -0.37880
C3405       C  0.56043579  0.91817643  0.61542180    -0.04550
C3406       C  0.56042350  0.93956707  0.64649798    -0.01670
C3407       C  0.54210644  0.92891372  0.67731313     0.03320
C3408       C  0.52472220  0.89498461  0.67792694    -0.04550
C3409       C  0.52059494  0.87851116  0.64357432    -0.01650
C3410       C  0.54542819  0.88482989  0.61762218     0.03320
C3411       C  0.58299159  0.97057007  0.64822976     0.37970
C3412       C  0.48796024  0.86210121  0.63090709     0.37960
C3413       C  0.55404939  0.85768163  0.59221158     0.36380
C3414       C  0.53743731  0.95579413  0.70443712     0.36380
N3415       N  0.56264472  0.83479249  0.57399932    -0.38440
N3416       N  0.53505212  0.97811833  0.72555965    -0.38440
N3417       N  0.46216863  0.84944042  0.61958112    -0.37880
N3418       N  0.60286387  0.49393036  0.65139987    -0.37880
C3419       C  0.51761371  0.89459604  0.75010220    -0.04550
C3420       C  0.54972686  0.91192664  0.76303159    -0.01670
C3421       C  0.55157116  0.93209391  0.79581064     0.03320
C3422       C  0.52306561  0.93320675  0.81914011    -0.04550
C3423       C  0.49207695  0.91449618  0.80801028    -0.01650
C3424       C  0.49000622  0.89404414  0.77595742     0.03320
C3425       C  0.58191413  0.90890126  0.74327268     0.37970
C3426       C  0.96100830  0.91522847  0.82985517     0.37960
C3427       C  0.96099519  0.86839271  0.77454107     0.36380
C3428       C  0.58314887  0.95199264  0.80560734     0.36380
N3429       N  0.93719034  0.84887965  0.77535459    -0.38440
N3430       N  0.60787612  0.96870547  0.81352021    -0.38440
N3431       N  0.93527727  0.91450536  0.84558082    -0.37880
N3432       N  0.60771718  0.90693525  0.72777110    -0.37880
C3433       C  0.67238047  0.99321134  0.90996468    -0.04550
C3434       C  0.70337006  0.98102677  0.92549489    -0.01450
C3435       C  0.73684923  0.98730039  0.90954782     0.03320
C3436       C  0.74029620  0.99930298  0.87372933    -0.04550
C3437       C  0.70861919  0.01186180  0.85848460    -0.01650
C3438       C  0.67659028  0.01123648  0.87712643     0.03320
C3439       C  0.70124601  0.96231820  0.95854312     0.37970
C3440       C  0.70792115  0.02540825  0.82240925     0.37960
C3441       C  0.64843734  0.03058110  0.86145271     0.36380
C3442       C  0.76705696  0.98320883  0.93192731     0.36380
N3443       N  0.62651522  0.04639609  0.84873503    -0.38440
N3444       N  0.79109427  0.97858574  0.94982816    -0.38440
N3445       N  0.70678664  0.03577193  0.79376613    -0.37880
N3446       N  0.69954628  0.94715402  0.48478601    -0.37880
C3447       C  0.81057287  0.99106465  0.87189035    -0.04550
C3448       C  0.83779980  0.51671533  0.87716334    -0.01670
C3449       C  0.87241367  0.50691270  0.87681908     0.03320
C3450       C  0.88174526  0.97323911  0.88766844    -0.04550
C3451       C  0.85504987  0.94728299  0.88902937    -0.01650
C3452       C  0.81985109  0.95555791  0.88073945     0.03320
C3453       C  0.83207497  0.55326606  0.88656306     0.37970
C3454       C  0.86395575  0.91218758  0.89900560     0.37960
C3455       C  0.79359383  0.92878650  0.88867641     0.36380
C3456       C  0.89804856  0.53349113  0.86686175     0.36380
N3457       N  0.77370188  0.90754271  0.89816267    -0.38440
N3458       N  0.91475084  0.55700391  0.85696026    -0.38440
N3459       N  0.87160024  0.88414752  0.90638599    -0.37880
N3460       N  0.83029778  0.58266769  0.89471413    -0.37880
C3461       C  0.73086336  0.51343977  0.57741560    -0.04550
C3462       C  0.70664431  0.98464983  0.57847167    -0.01670
C3463       C  0.67077636  0.99014568  0.57779629     0.03320
C3464       C  0.65728320  0.52182668  0.56519097    -0.04550
C3465       C  0.68111686  0.54898959  0.55650921    -0.01650
C3466       C  0.71743707  0.54492448  0.56171651     0.03320
C3467       C  0.71674114  0.94857487  0.57351557     0.37970
C3468       C  0.66842502  0.58071783  0.54084834     0.37960
C3469       C  0.74045184  0.57228082  0.54778945     0.36380
C3470       C  0.64827846  0.96128699  0.58917779     0.36380
N3471       N  0.75801246  0.59365424  0.53481597    -0.38440
N3472       N  0.63369760  0.93646655  0.59925808    -0.38440
N3473       N  0.65845433  0.60607476  0.02844172    -0.37880
N3474       N  0.72183603  0.91905486  0.56859124    -0.37880
C3475       C  0.86961363  0.51454546  0.54939966    -0.04550
C3476       C  0.83923080  0.52053637  0.52934272    -0.01670
C3477       C  0.80558186  0.51820093  0.54488022     0.03320
C3478       C  0.80121542  0.51710615  0.58272901    -0.04550
C3479       C  0.83296846  0.51464897  0.60308992    -0.01650
C3480       C  0.86587617  0.51123376  0.58664476     0.03320
C3481       C  0.84235171  0.52843651  0.99209716     0.37970
C3482       C  0.83279285  0.01720379  0.64159352     0.37960
C3483       C  0.89609869  0.00535109  0.60908630     0.36380
C3484       C  0.77644186  0.51316957  0.52068473     0.36380
N3485       N  0.91975033  0.00031805  0.62738096    -0.38440
N3486       N  0.75245623  0.50988598  0.50191404    -0.38440
N3487       N  0.83453713  0.01955158  0.67222143    -0.37880
N3488       N  0.84545492  0.53550295  0.96260182    -0.37880
C3489       C  0.95993847  0.64871153  0.98862191    -0.04550
C3490       C  0.94211231  0.65665494  0.95683993    -0.01670
C3491       C  0.91603874  0.68179320  0.95633720     0.03320
C3492       C  0.91446265  0.70885297  0.98339971    -0.04550
C3493       C  0.93631765  0.70322809  0.51446025    -0.01650
C3494       C  0.95669169  0.67251701  0.51758369     0.03320
C3495       C  0.94581632  0.63551521  0.92473670     0.37970
C3496       C  0.93599897  0.72740462  0.54494297     0.37960
C3497       C  0.97193372  0.66422546  0.55156690     0.36380
C3498       C  0.88708765  0.67226545  0.93229023     0.36380
N3499       N  0.48380671  0.65768202  0.57888987    -0.38440
N3500       N  0.86496284  0.66245121  0.91296610    -0.38440
N3501       N  0.93591030  0.74646992  0.56934945    -0.37880
N3502       N  0.94490248  0.61993181  0.89809522    -0.37880
C3503       C  0.90460444  0.77935747  0.98702218    -0.04550
C3504       C  0.88578394  0.81102911  0.98144399    -0.01670
C3505       C  0.89780964  0.84463360  0.99529002     0.03320
C3506       C  0.93258752  0.85056718  0.50679201    -0.04550
C3507       C  0.95403921  0.82112217  0.50522806    -0.01650
C3508       C  0.94112133  0.78692334  0.49376026     0.03320
C3509       C  0.86043909  0.81242597  0.95270094     0.37970
C3510       C  0.99099501  0.82696214  0.51127090     0.37960
C3511       C  0.96698282  0.76327675  0.48049419     0.36380
C3512       C  0.87535526  0.87448770  0.99346986     0.36380
N3513       N  0.98724844  0.74483654  0.46829060    -0.38440
N3514       N  0.85748055  0.89830059  0.99210423    -0.38440
N3515       N  0.52065179  0.83148013  0.51527403    -0.37880
N3516       N  0.84053649  0.81450619  0.92956472    -0.37880
C3517       C  0.62417715  0.71027040  0.96274402    -0.04550
C3518       C  0.58926632  0.70058590  0.97274365    -0.01670
C3519       C  0.57905124  0.66478298  0.97455496     0.03320
C3520       C  0.59722437  0.63843909  0.95578057    -0.04550
C3521       C  0.63186424  0.64694612  0.94685441    -0.01650
C3522       C  0.64622711  0.68129999  0.95449267     0.03320
C3523       C  0.56634523  0.72518588  0.49023897     0.37970
C3524       C  0.65368959  0.61952159  0.93309057     0.37960
C3525       C  0.68375903  0.68525894  0.95677659     0.36380
C3526       C  0.55950814  0.65562521  0.50592558     0.36380
N3527       N  0.71362972  0.68640985  0.96128820    -0.38440
N3528       N  0.54788723  0.65085117  0.53368067    -0.38440
N3529       N  0.67092102  0.59754845  0.92202277    -0.37880
N3530       N  0.54897585  0.74411754  0.50607724    -0.37880
C3531       C  0.61171979  0.77886152  0.97018087    -0.04550
C3532       C  0.58518133  0.78411901  0.94311471    -0.01670
C3533       C  0.56843142  0.81656210  0.94004031     0.03320
C3534       C  0.57728149  0.84478818  0.96321658    -0.04550
C3535       C  0.60012688  0.83884030  0.99218100    -0.01650
C3536       C  0.61455388  0.80577057  0.99722956     0.03320
C3537       C  0.57169719  0.75599283  0.91964781     0.37970
C3538       C  0.61133602  0.86731068  0.01666936     0.37960
C3539       C  0.63360215  0.80234672  0.03018558     0.36380
C3540       C  0.54296019  0.82125973  0.91184043     0.36380
N3541       N  0.64880719  0.80288107  0.05684471    -0.38440
N3542       N  0.52255903  0.82491064  0.88949793    -0.38440
N3543       N  0.62235836  0.88912548  0.53593740    -0.37880
N3544       N  0.55801556  0.73485257  0.90122525    -0.37880
C3545       C  0.50593754  0.55996226  0.63662343    -0.04550
C3546       C  0.97811875  0.58180638  0.64432856    -0.01670
C3547       C  0.98138234  0.60795337  0.67217767     0.03320
C3548       C  0.50615049  0.60504763  0.70160561    -0.04550
C3549       C  0.53404250  0.58201940  0.69262855    -0.01650
C3550       C  0.53590621  0.56535577  0.65843093     0.03320
C3551       C  0.94922854  0.58242804  0.61906457     0.37970
C3552       C  0.56221420  0.57445312  0.71666732     0.37960
C3553       C  0.56998019  0.56194509  0.64269307     0.36380
C3554       C  0.96406290  0.64013669  0.66422893     0.36380
N3555       N  0.59710631  0.56198022  0.62949062    -0.38440
N3556       N  0.95010927  0.66525030  0.65604510    -0.38440
N3557       N  0.58587869  0.56581826  0.73321560    -0.37880
N3558       N  0.92654281  0.58332726  0.59864839    -0.37880
C3559       C  0.48798078  0.57550660  0.84196287    -0.04550
C3560       C  0.48223366  0.55538646  0.81031048    -0.01670
C3561       C  0.48919306  0.57028561  0.77673372     0.03320
C3562       C  0.49589513  0.60745364  0.77434660    -0.04550
C3563       C  0.99349969  0.62702661  0.80762942    -0.01650
C3564       C  0.99870326  0.61057940  0.83940076     0.03320
C3565       C  0.47004972  0.51912295  0.81244320     0.37970
C3566       C  0.97013648  0.65540624  0.81347908     0.37960
C3567       C  0.01449725  0.63064346  0.86912887     0.36380
C3568       C  0.48654716  0.54705359  0.74586250     0.36380
N3569       N  0.02735402  0.64669639  0.89255832    -0.38440
N3570       N  0.48256619  0.52811995  0.72156151    -0.38440
N3571       N  0.95032414  0.67643887  0.82114897    -0.37880
N3572       N  0.45909320  0.49055066  0.81384605    -0.37880
C3573       C  0.91268547  0.69711082  0.73969005    -0.04550
C3574       C  0.94557293  0.71172784  0.75059534    -0.01670
C3575       C  0.97653219  0.69156741  0.74822330     0.03320
C3576       C  0.97438652  0.65449752  0.73849141    -0.04550
C3577       C  0.93962680  0.63991919  0.73367336    -0.01650
C3578       C  0.91192448  0.66158177  0.72697148     0.03320
C3579       C  0.94755259  0.74669534  0.76651414     0.37970
C3580       C  0.93074011  0.60241932  0.73210602     0.37960
C3581       C  0.88461556  0.64676956  0.70314234     0.36380
C3582       C  0.00786641  0.70736667  0.76470079     0.36380
N3583       N  0.86339838  0.63537169  0.68361923    -0.38440
N3584       N  0.03204955  0.72053129  0.77888533    -0.38440
N3585       N  0.91995174  0.57364879  0.73003206    -0.37880
N3586       N  0.94950720  0.77425023  0.78015749    -0.37880
C3587       C  0.54446466  0.64587664  0.74415482    -0.04550
C3588       C  0.55679062  0.67033176  0.71872581    -0.01670
C3589       C  0.59070717  0.68660199  0.72096232     0.03320
C3590       C  0.61567108  0.67829486  0.74769808    -0.04550
C3591       C  0.60472174  0.65354520  0.77269150    -0.01650
C3592       C  0.57044194  0.63699705  0.77091120     0.03320
C3593       C  0.53466639  0.68073169  0.68957760     0.37970
C3594       C  0.63016051  0.64224567  0.79849265     0.37960
C3595       C  0.56612633  0.60707105  0.79377974     0.36380
C3596       C  0.59937226  0.71150267  0.69355395     0.36380
N3597       N  0.56529326  0.58271428  0.81163454    -0.38440
N3598       N  0.60445023  0.72961321  0.66983959    -0.38440
N3599       N  0.65022834  0.63261872  0.81889824    -0.37880
N3600       N  0.51996585  0.69191252  0.66562890    -0.37880
loop_ 
_geom_bond_atom_site_label_1 
_geom_bond_atom_site_label_2 
_geom_bond_distance 
_geom_bond_site_symmetry_2 
_ccdc_geom_bond_type 
C1          C426   1.595       .  S
C1         C2198   1.647       .  S
C1         C2212   1.593       .  S
C1         C2237   1.622       .  S
O2          Zr38   2.531       .  S
O2         C1813   1.310       .  A
O3          Zr37   2.557       .  S
O3           C14   1.312       .  A
O4          Zr10   2.554       .  S
O4           C15   1.314       .  A
O5         Zr910   2.554       .  S
O5           C16   1.314       .  A
O6          Zr40   2.414   1_455  S
O6           C16   1.289       .  A
O7         Zr489   2.348       .  S
O7           C15   1.273       .  A
O8         Zr910   2.378       .  S
O8           C14   1.276       .  A
O9          Zr10   2.289       .  S
O9           C13   1.264   1_455  A
Zr10        O905   2.554   1_545  S
Zr10        O908   2.378       .  S
Zr10         O12   2.359       .  S
Zr10         O18   2.320       .  S
Zr10        O911   2.332   1_545  S
Zr10        O920   2.347   1_445  S
O11         Zr37   2.323       .  S
O11         Zr40   2.363   1_455  S
O11        Zr910   2.332       .  S
O12       Zr1838   2.326   1_455  S
O12        Zr489   2.344       .  S
C13        O1802   1.310       .  A
C13         C409   1.460       .  S
C14         C283   1.551       .  S
C15         C370   1.499       .  S
C16         C272   1.536       .  S
H17          O18   0.965       .  S
O18        Zr937   2.312   1_545  S
O18        Zr489   2.359       .  S
H19        O1820   0.965       .  S
O20         Zr40   2.324       .  S
O20        Zr910   2.347   1_655  S
O20       Zr2738   2.330       .  S
O20        H1819   0.965       .  S
O21        Zr487   2.500   1_554  S
O21          C44   1.302       .  A
O22         Zr38   2.503       .  S
O22         C495   1.304       .  A
O23         Zr39   2.526       .  S
O23          C46   1.308       .  A
O24         Zr40   2.497   1_455  S
O24          C47   1.302       .  A
O25       Zr1840   2.540       .  S
O25          C48   1.309       .  A
O26         Zr39   2.560       .  S
O26        C2299   1.309   1_454  A
O27        Zr941   2.556   1_545  S
O27        C1850   1.315       .  A
O28         Zr41   2.570       .  S
O28          C51   1.318       .  A
O29         Zr39   2.401       .  S
O29          C50   1.285       .  A
O30       Zr1840   2.397       .  S
O30         C501   1.285       .  A
O31        Zr487   2.317   1_554  S
O31         C946   1.271       .  A
O32         Zr38   2.358       .  S
O32          C49   1.276       .  A
O33        Zr938   2.318       .  S
O33          C48   1.271       .  A
O34         Zr37   2.367       .  S
O34          C47   1.275       .  A
O35       Zr1841   2.368   1_455  S
O35          C44   1.281       .  A
O36         Zr41   2.416       .  S
O36         C945   1.288       .  A
Zr37        O471   2.500       .  S
Zr37        O481   2.317       .  S
Zr37         O55   2.359       .  S
Zr37        O918   2.312       .  S
Zr37        O493   2.345       .  S
Zr38        O933   2.318       .  S
Zr38       O1812   2.326       .  S
Zr38       O2720   2.330   1_545  S
Zr38        O942   2.339   1_545  S
Zr38        O503   2.328       .  S
Zr39        O457   2.348   1_554  S
Zr39        O462   2.344   1_554  S
Zr39        O468   2.359   1_554  S
Zr39        O943   2.325   1_545  S
Zr39       O1853   2.335   1_455  S
Zr40       O1825   2.540       .  S
Zr40       O1830   2.397       .  S
Zr40         O55   2.356   1_655  S
Zr40       O1842   2.349       .  S
Zr41        O927   2.556       .  S
Zr41       O1835   2.368       .  S
Zr41        O492   2.343   1_554  S
Zr41       O1843   2.347       .  S
Zr41       O2305   2.362   1_554  S
Zr41        O953   2.348       .  S
O42        Zr938   2.339       .  S
O42       Zr1840   2.349       .  S
O42        Zr491   2.343       .  S
O43        Zr487   2.345   1_554  S
O43        Zr939   2.325       .  S
O43       Zr1841   2.347   1_455  S
C44         C255   1.476       .  S
C45         O472   1.304       .  A
C45         O936   1.288   1_545  A
C45         C325   1.522       .  S
C46         O931   1.271   1_545  A
C46         C314   1.486       .  S
C47         C384   1.498       .  S
C48         C300   1.498       .  S
C49        O2276   1.309       .  A
C49         C339   1.524       .  S
C50        O1827   1.315   1_455  A
C50         C395   1.519       .  S
C51         O480   1.285   1_554  A
C51         C356   1.523       .  S
H52          O53   0.966       .  S
O53        Zr488   2.328   1_554  S
O53       Zr1839   2.335       .  S
O53        Zr941   2.348   1_545  S
H54         O505   0.966   1_554  S
O55       Zr2291   2.362   1_455  S
O55         H504   0.966       .  S
C56         C244   1.603       .  S
C56         C311   1.598       .  S
C56         C328   1.607       .  S
C56        C1127   1.632   1_545  S
O57         Zr93   2.585       .  S
O57          C68   1.321       .  A
O58         Zr92   2.538       .  S
O58          C69   1.306       .  A
O59         Zr65   2.498       .  S
O59          C70   1.302       .  A
O60         Zr65   2.475       .  S
O60          C71   1.296       .  A
O61         Zr95   2.339       .  S
O61          C71   1.277       .  A
O62         Zr94   2.368       .  S
O62          C70   1.278       .  A
O63         Zr65   2.400       .  S
O63          C69   1.286       .  A
O64         Zr65   2.360       .  S
O64          C68   1.275       .  A
Zr65         O66   2.333       .  S
Zr65         O67   2.323       .  S
Zr65         O75   2.344       .  S
Zr65         O73   2.340       .  S
O66         Zr92   2.342       .  S
O66         Zr95   2.348       .  S
O67         Zr93   2.342       .  S
O67         Zr94   2.331       .  S
C68         C440   1.539       .  S
C69         C129   1.522       .  S
C70         C213   1.487       .  S
C71         C241   1.459       .  S
H72          O73   0.966       .  S
O73         Zr92   2.345       .  S
O73         Zr94   2.339       .  S
H74          O75   0.965       .  S
O75         Zr93   2.300       .  S
O75         Zr95   2.325       .  S
O76         Zr92   2.485       .  S
O76          C99   1.300       .  A
O77         Zr93   2.512       .  S
O77         C100   1.307       .  A
O78         Zr94   2.536       .  S
O78         C101   1.309       .  A
O79         Zr95   2.527       .  S
O79         C102   1.306       .  A
O80         Zr95   2.532       .  S
O80         C103   1.309       .  A
O81         Zr94   2.524       .  S
O81         C104   1.307       .  A
O82         Zr96   2.521       .  S
O82         C105   1.305       .  A
O83         Zr96   2.529       .  S
O83         C106   1.305       .  A
O84         Zr94   2.295       .  S
O84         C105   1.265       .  A
O85         Zr95   2.346       .  S
O85         C106   1.269       .  A
O86         Zr92   2.405       .  S
O86         C101   1.285       .  A
O87         Zr93   2.323       .  S
O87         C104   1.273       .  A
O88         Zr93   2.408       .  S
O88         C103   1.283       .  A
O89         Zr92   2.373       .  S
O89         C102   1.263       .  A
O90         Zr96   2.412       .  S
O90          C99   1.287       .  A
O91         Zr96   2.397       .  S
O91         C100   1.285       .  A
Zr92         O98   2.342       .  S
Zr92        O110   2.347       .  S
Zr93         O97   2.341       .  S
Zr93        O108   2.369       .  S
Zr94         O98   2.330       .  S
Zr94        O108   2.347       .  S
Zr95         O97   2.327       .  S
Zr95        O110   2.327       .  S
Zr96         O97   2.368       .  S
Zr96         O98   2.348       .  S
Zr96        O110   2.316       .  S
Zr96        O108   2.341       .  S
C99         C199   1.485       .  S
C100        C143   1.520       .  S
C101        C230   1.538       .  S
C102        C157   1.498       .  S
C103        C185   1.546       .  S
C104        C118   1.474       .  S
C105        C174   1.485       .  S
C106        C423   1.525       .  S
H107        O108   0.965       .  S
H109        O110   0.961       .  S
C111        C115   1.604       .  S
C111        C367   1.591       .  S
C111        C381   1.601       .  S
C111        C582   1.634       .  S
C112        C216   1.608       .  S
C112        C258   1.603       .  S
C112        C269   1.636       .  S
C112       C2002   1.590   1_455  S
C113        C146   1.603       .  S
C113        C342   1.620       .  S
C113        C353   1.650       .  S
C113        C610   1.591       .  S
C114        C171   1.601       .  S
C114        C286   1.629       .  S
C114        C297   1.600       .  S
C114       C1088   1.632       .  S
C115        C116   1.456       .  A
C115        C120   1.446       .  A
C116        C117   1.413       .  A
C116        C121   1.450       .  S
C117        C118   1.398       .  A
C117        C124   1.458       .  S
C118        C119   1.402       .  A
C119        C120   1.410       .  A
C119        C122   1.448       .  S
C120        C123   1.450       .  S
C121        N128   1.158       .  T
C122        N127   1.157       .  T
C123        N125   1.158       .  T
C124        N126   1.157       .  T
C129        C130   1.410       .  A
C129        C134   1.409       .  A
C130        C131   1.431       .  A
C130        C135   1.443       .  S
C131        C132   1.445   1_554  A
C131        C588   1.435   1_554  S
C132        C561   1.634       .  S
C132        C133   1.447   1_556  A
C133        C134   1.407       .  A
C133        C136   1.442       .  S
C134        C137   1.452       .  S
C135        N142   1.157       .  T
C136        N141   1.157       .  T
C137        N139   1.156       .  T
C138        C581   1.435       .  S
C138        N140   1.154       .  T
C143        C144   1.406       .  A
C143        C148   1.401       .  A
C144        C145   1.410       .  A
C144        C149   1.441       .  S
C145        C146   1.434       .  A
C145        C152   1.450       .  S
C146        C147   1.458       .  A
C147        C148   1.432       .  A
C147        C150   1.449       .  S
C148        C151   1.446       .  S
C149        N156   1.151       .  T
C150        N155   1.158       .  T
C151        N153   1.156       .  T
C152        N154   1.157       .  T
C157        C158   1.426       .  A
C157        C162   1.399       .  A
C158        C159   1.399       .  A
C158        C163   1.449       .  S
C159        C160   1.410       .  A
C159        C166   1.443       .  S
C160        C563   1.591   1_554  S
C160        C161   1.443       .  A
C161        C162   1.411       .  A
C161        C164   1.452       .  S
C162        C165   1.444       .  S
C163        N170   1.155       .  T
C164        N169   1.158       .  T
C165        N167   1.155       .  T
C166        N168   1.156   1_554  T
C171        C172   1.414       .  A
C171        C176   1.429       .  A
C172        C173   1.396       .  A
C172        C177   1.446       .  S
C173        C174   1.428       .  A
C173        C180   1.451       .  S
C174        C175   1.405       .  A
C175        C176   1.417       .  A
C175        C178   1.450       .  S
C176        C179   1.441       .  S
C177        N184   1.157       .  T
C178        N183   1.157       .  T
C179        N181   1.155       .  T
C180        N182   1.155       .  T
C185        C186   1.434       .  A
C185        C190   1.418       .  A
C186        C187   1.422       .  A
C186        C191   1.453       .  S
C187        C188   1.438       .  A
C187        C194   1.459       .  S
C188       C1014   1.632       .  S
C188        C189   1.435       .  A
C189        C190   1.429       .  A
C189        C192   1.448       .  S
C190        C193   1.445       .  S
C191        N198   1.157       .  T
C192        N197   1.158       .  T
C193        N195   1.155       .  T
C194        N196   1.158       .  T
C199        C200   1.400       .  A
C199        C204   1.404       .  A
C200        C201   1.419       .  A
C200        C205   1.452       .  S
C201        C202   1.445       .  A
C201        C208   1.448       .  S
C202       C1912   1.590       .  S
C202        C203   1.437       .  A
C203        C204   1.413       .  A
C203        C206   1.444       .  S
C204        C207   1.453       .  S
C205        N212   1.157       .  T
C206        N211   1.157       .  T
C207        N209   1.157       .  T
C208        N210   1.156       .  T
C213        C214   1.414       .  A
C213        C218   1.398       .  A
C214        C215   1.410       .  A
C214        C219   1.446       .  S
C215        C216   1.424       .  A
C215        C222   1.450       .  S
C216        C217   1.441       .  A
C217        C218   1.407       .  A
C217        C220   1.451       .  S
C218        C221   1.446       .  S
C219        N226   1.156       .  T
C220        N225   1.158       .  T
C221        N223   1.154       .  T
C222        N224   1.157       .  T
C227        C956   1.632       .  S
C227        C228   1.447       .  A
C227        C232   1.444       .  A
C228        C229   1.412       .  A
C228        C233   1.457       .  S
C229        C230   1.418       .  A
C229        C236   1.452       .  S
C230        C231   1.414       .  A
C231        C232   1.434       .  A
C231        C234   1.443       .  S
C232        C235   1.449       .  S
C233        N240   1.158       .  T
C234        N239   1.155       .  T
C235        N237   1.158       .  T
C236        N238   1.157       .  T
C241        C242   1.392       .  A
C241        C246   1.390       .  A
C242        C243   1.416       .  A
C242        C247   1.452       .  S
C243        C244   1.463       .  A
C243        C250   1.452       .  S
C244        C245   1.447       .  A
C245        C246   1.403       .  A
C245        C248   1.446       .  S
C246        C249   1.458       .  S
C247        N254   1.157       .  T
C248        N253   1.157       .  T
C249        N251   1.156       .  T
C250        N252   1.157       .  T
C255        C256   1.410       .  A
C255        C260   1.380       .  A
C256        C257   1.422       .  A
C256        C261   1.438       .  S
C257        C258   1.433       .  A
C257        C264   1.446       .  S
C258        C259   1.429       .  A
C259        C260   1.391       .  A
C259        C262   1.450   1_455  S
C260        C263   1.441       .  S
C261       N1168   1.154       .  T
C262        N267   1.158       .  T
C263        N265   1.155       .  T
C264        N266   1.157       .  T
N268       C1161   1.154       .  T
C269        C270   1.451       .  A
C269        C274   1.446   1_455  A
C270        C271   1.438       .  A
C270        C275   1.454       .  S
C271        C272   1.411       .  A
C271        C278   1.445       .  S
C272        C273   1.418   1_455  A
C273        C274   1.421       .  A
C273       C2076   1.456       .  S
C274       C2077   1.454       .  S
C275        N282   1.158       .  T
C276       C2073   1.456       .  S
C276        N281   1.156       .  T
C277       C2074   1.454       .  S
C277        N279   1.158       .  T
C278        N280   1.156       .  T
C283        C284   1.417       .  A
C283        C288   1.436       .  A
C284        C285   1.438       .  A
C284        C289   1.450       .  S
C285        C286   1.440       .  A
C285        C292   1.441       .  S
C286        C287   1.440       .  A
C287        C288   1.421       .  A
C287        C290   1.465       .  S
C288        C291   1.456       .  S
C289        N746   1.158       .  T
C290        N295   1.158       .  T
C291        N293   1.158       .  T
C292        N294   1.157       .  T
N296        C739   1.158       .  T
C297        C302   1.455       .  A
C297       C1198   1.413       .  A
C298        C299   1.392       .  A
C298       C1197   1.413   1_545  A
C298        C303   1.452       .  S
C299       C1200   1.411   1_545  A
C299        C306   1.444       .  S
C300        C301   1.400       .  A
C300       C1199   1.411       .  A
C301        C302   1.430       .  A
C301        C304   1.448       .  S
C302        C305   1.446       .  S
C303        N310   1.158       .  T
C304        N309   1.156       .  T
C305        N307   1.157       .  T
C306        N308   1.153       .  T
C311        C316   1.457       .  A
C311       C1212   1.413   1_545  A
C312        C313   1.399       .  A
C312       C1211   1.413       .  A
C312        C317   1.448       .  S
C313       C1214   1.419       .  A
C313        C320   1.448       .  S
C314        C315   1.402       .  A
C314       C1213   1.419   1_545  A
C315        C316   1.419       .  A
C315        C318   1.454       .  S
C316        C319   1.452       .  S
C317        N324   1.158       .  T
C318        N773   1.157       .  T
C319        N321   1.158       .  T
C320        N322   1.155       .  T
N323        C768   1.157       .  T
C325        C326   1.410       .  A
C325        C330   1.420       .  A
C326        C327   1.423       .  A
C326        C781   1.447   1_554  S
C327        C328   1.438       .  A
C327        C334   1.439       .  S
C328        C329   1.440       .  A
C329        C330   1.420       .  A
C329       C1232   1.451       .  S
C330       C1233   1.454       .  S
C331        C776   1.447       .  S
C331        N338   1.155       .  T
C332       C1229   1.451       .  S
C332        N337   1.156       .  T
C333       C1230   1.454       .  S
C333        N335   1.158       .  T
C334        N336   1.156       .  T
C339        C340   1.417       .  A
C339        C794   1.411       .  A
C340        C341   1.409       .  A
C340        C345   1.448       .  S
C341        C342   1.435       .  A
C341        C348   1.456       .  S
C342        C793   1.456       .  A
C343        C344   1.435       .  A
C343        C792   1.456   1_554  A
C343        C346   1.455       .  S
C344        C789   1.411   1_554  A
C344        C347   1.448       .  S
C345        N352   1.153       .  T
C346        N351   1.158       .  T
C347       N2149   1.157       .  T
C348        N350   1.158       .  T
N349       C2147   1.157       .  T
C353        C354   1.445       .  A
C353        C808   1.439       .  A
C354        C355   1.429       .  A
C354        C359   1.451       .  S
C355        C806   1.407       .  A
C355        C362   1.452       .  S
C356        C357   1.414       .  A
C356        C805   1.407   1_554  A
C357        C358   1.432   1_554  A
C357        C360   1.442       .  S
C358        C803   1.439       .  A
C358        C361   1.448       .  S
C359        N366   1.159       .  T
C360       N2165   1.152       .  T
C361        N363   1.157       .  T
C362        N364   1.157       .  T
N365       C2160   1.152   1_455  T
C367        C368   1.433       .  A
C367        C372   1.443       .  A
C368        C369   1.408       .  A
C368        C823   1.458       .  S
C369        C370   1.420       .  A
C369        C826   1.449       .  S
C370        C371   1.402       .  A
C371        C372   1.423       .  A
C371        C374   1.451       .  S
C372        C375   1.443       .  S
C373        C818   1.458       .  S
C373        N380   1.158   1_556  T
C374        N379   1.157       .  T
C375        N377   1.156       .  T
C376        C819   1.449   1_554  S
C376        N378   1.156       .  T
C381        C382   1.455       .  A
C381        C386   1.428       .  A
C382        C383   1.419       .  A
C382        C387   1.450       .  S
C383        C384   1.398       .  A
C383        C390   1.454       .  S
C384        C385   1.420       .  A
C385        C386   1.409       .  A
C385        C388   1.457       .  S
C386        C389   1.445       .  S
C387        N394   1.158       .  T
C388        N843   1.156       .  T
C389        N391   1.155       .  T
C390        N392   1.157       .  T
N393        C838   1.156       .  T
C395        C400   1.412       .  A
C395       C2196   1.404   1_455  A
C396        C397   1.430       .  A
C396       C2195   1.404       .  A
C396        C401   1.454       .  S
C397       C2198   1.461       .  A
C397        C404   1.450       .  S
C398       C1801   1.647       .  S
C398        C399   1.445       .  A
C398       C2197   1.461   1_455  A
C399        C400   1.426       .  A
C399        C402   1.444       .  S
C400        C403   1.449       .  S
C401        N408   1.157       .  T
C402        N407   1.157       .  T
C403        N405   1.158       .  T
C404        N406   1.158       .  T
C409        C410   1.413       .  A
C409       C2214   1.389       .  A
C410        C411   1.422       .  A
C410        C415   1.446       .  S
C411        C412   1.434       .  A
C411        C418   1.445       .  S
C412       C1801   1.593   1_655  S
C412       C2213   1.448       .  A
C413        C414   1.379       .  A
C413       C2212   1.448       .  A
C413        C416   1.442       .  S
C414       C2209   1.389       .  A
C414        C417   1.455       .  S
C415        N422   1.155   1_545  T
C416        N421   1.157       .  T
C417        N419   1.157       .  T
C418        N420   1.157       .  T
C423        C424   1.414       .  A
C423        C428   1.423       .  A
C424        C425   1.439       .  A
C424        C429   1.446       .  S
C425        C426   1.449       .  A
C425        C432   1.452       .  S
C426        C427   1.434       .  A
C427        C428   1.392       .  A
C427        C430   1.455       .  S
C428        C431   1.461       .  S
C429        N436   1.157       .  T
C430        N435   1.158       .  T
C431        N433   1.157       .  T
C432        N434   1.158       .  T
C437       C1801   1.622       .  S
C437        C438   1.424       .  A
C437        C442   1.463       .  A
C438        C439   1.422       .  A
C438        C443   1.452       .  S
C439        C440   1.431       .  A
C439        C446   1.451       .  S
C440        C441   1.404       .  A
C441        C442   1.438       .  A
C441        C444   1.453       .  S
C442        C445   1.450       .  S
C443        N450   1.156       .  T
C444        N449   1.157       .  T
C445        N447   1.158       .  T
C446        N448   1.155       .  T
C451       C2648   1.647       .  S
C451       C2662   1.593       .  S
C451        C876   1.595       .  S
C451       C2687   1.622       .  S
O452       Zr488   2.531       .  S
O452       C2263   1.310       .  A
O453       Zr487   2.557       .  S
O453        C464   1.312       .  A
O454       Zr460   2.554       .  S
O454        C465   1.314       .  A
O455      Zr1360   2.554       .  S
O455        C466   1.314       .  A
O456       Zr490   2.414   1_455  S
O456        C466   1.289       .  A
O457        C465   1.273       .  A
O458      Zr1360   2.378       .  S
O458        C464   1.276       .  A
O459       Zr460   2.289       .  S
O459        C463   1.264   1_455  A
Zr460      O1355   2.554   1_545  S
Zr460      O1358   2.378       .  S
Zr460      O1361   2.332   1_545  S
Zr460       O462   2.359       .  S
Zr460      O1370   2.347   1_445  S
Zr460       O468   2.320       .  S
O461      Zr1360   2.332       .  S
O461       Zr487   2.323       .  S
O461       Zr490   2.363   1_455  S
O462      Zr2288   2.326   1_455  S
C463       O2252   1.310       .  A
C463        C859   1.460       .  S
C464        C733   1.551       .  S
C465        C820   1.499       .  S
C466        C722   1.536       .  S
H467        O468   0.965       .  S
O468      Zr1387   2.312   1_545  S
H469       O2270   0.965       .  S
O470      Zr1360   2.347   1_655  S
O470      Zr3188   2.330       .  S
O470       Zr490   2.324       .  S
O470       H2269   0.965       .  S
O471        C494   1.302       .  A
O472       Zr488   2.503   1_554  S
O473       Zr489   2.526       .  S
O473        C496   1.308       .  A
O474       Zr490   2.497   1_455  S
O474        C497   1.302       .  A
O475      Zr2290   2.540       .  S
O475        C498   1.309       .  A
O476       Zr489   2.560       .  S
O476       C1849   1.309   1_455  A
O477      Zr1391   2.556   1_545  S
O477       C2300   1.315       .  A
O478       Zr491   2.570       .  S
O478        C501   1.318       .  A
O479       Zr489   2.401       .  S
O479        C500   1.285       .  A
O480      Zr2290   2.397       .  S
O481       C1396   1.271       .  A
O482       Zr488   2.358       .  S
O482        C499   1.276       .  A
O483      Zr1388   2.318       .  S
O483        C498   1.271       .  A
O484       Zr487   2.367       .  S
O484        C497   1.275       .  A
O485      Zr2291   2.368   1_455  S
O485        C494   1.281       .  A
O486       Zr491   2.416       .  S
O486       C1395   1.288       .  A
Zr487      O1368   2.312       .  S
Zr487       O505   2.359       .  S
Zr488      O1383   2.318       .  S
Zr488      O2262   2.326       .  S
Zr488      O3170   2.330   1_545  S
Zr488      O1392   2.339   1_545  S
Zr489      O1393   2.325   1_545  S
Zr489      O2303   2.335   1_455  S
Zr490      O2275   2.540       .  S
Zr490      O2280   2.397       .  S
Zr490      O2292   2.349       .  S
Zr490       O505   2.356   1_655  S
Zr491      O1377   2.556       .  S
Zr491      O2285   2.368       .  S
Zr491      O2293   2.347       .  S
Zr491      O1855   2.362       .  S
Zr491      O1403   2.348       .  S
O492      Zr1388   2.339       .  S
O492      Zr2290   2.349       .  S
O493      Zr1389   2.325       .  S
O493      Zr2291   2.347   1_455  S
C494        C705   1.476       .  S
C495       O1386   1.288   1_545  A
C495        C775   1.522       .  S
C496       O1381   1.271   1_545  A
C496        C764   1.486       .  S
C497        C834   1.498       .  S
C498        C750   1.498       .  S
C499       O1826   1.309   1_556  A
C499        C789   1.524       .  S
C500       O2277   1.315   1_455  A
C500        C845   1.519       .  S
C501        C806   1.523       .  S
H502        O503   0.966       .  S
O503      Zr2289   2.335       .  S
O503      Zr1391   2.348   1_545  S
O505      Zr1841   2.362   1_456  S
C506       C1577   1.632   1_545  S
C506        C694   1.603       .  S
C506        C761   1.598       .  S
C506        C778   1.607       .  S
O507       Zr543   2.585       .  S
O507        C518   1.321       .  A
O508       Zr542   2.538       .  S
O508        C519   1.306       .  A
O509       Zr515   2.498       .  S
O509        C520   1.302       .  A
O510       Zr515   2.475       .  S
O510        C521   1.296       .  A
O511       Zr545   2.339       .  S
O511        C521   1.277       .  A
O512       Zr544   2.368       .  S
O512        C520   1.278       .  A
O513       Zr515   2.400       .  S
O513        C519   1.286       .  A
O514       Zr515   2.360       .  S
O514        C518   1.275       .  A
Zr515       O516   2.333       .  S
Zr515       O517   2.323       .  S
Zr515       O525   2.344       .  S
Zr515       O523   2.340       .  S
O516       Zr542   2.342       .  S
O516       Zr545   2.348       .  S
O517       Zr543   2.342       .  S
O517       Zr544   2.331       .  S
C518        C890   1.539       .  S
C519        C579   1.522       .  S
C520        C663   1.487       .  S
C521        C691   1.459       .  S
H522        O523   0.966       .  S
O523       Zr542   2.345       .  S
O523       Zr544   2.339       .  S
H524        O525   0.965       .  S
O525       Zr543   2.300       .  S
O525       Zr545   2.325       .  S
O526       Zr542   2.485       .  S
O526        C549   1.300       .  A
O527       Zr543   2.512       .  S
O527        C550   1.307       .  A
O528       Zr544   2.536       .  S
O528        C551   1.309       .  A
O529       Zr545   2.527       .  S
O529        C552   1.306       .  A
O530       Zr545   2.532       .  S
O530        C553   1.309       .  A
O531       Zr544   2.524       .  S
O531        C554   1.307       .  A
O532       Zr546   2.521       .  S
O532        C555   1.305       .  A
O533       Zr546   2.529       .  S
O533        C556   1.305       .  A
O534       Zr544   2.295       .  S
O534        C555   1.265       .  A
O535       Zr545   2.346       .  S
O535        C556   1.269       .  A
O536       Zr542   2.405       .  S
O536        C551   1.285       .  A
O537       Zr543   2.323       .  S
O537        C554   1.273       .  A
O538       Zr543   2.408       .  S
O538        C553   1.283       .  A
O539       Zr542   2.373       .  S
O539        C552   1.263       .  A
O540       Zr546   2.412       .  S
O540        C549   1.287       .  A
O541       Zr546   2.397       .  S
O541        C550   1.285       .  A
Zr542       O548   2.342       .  S
Zr542       O560   2.347       .  S
Zr543       O547   2.341       .  S
Zr543       O558   2.369       .  S
Zr544       O548   2.330       .  S
Zr544       O558   2.347       .  S
Zr545       O547   2.327       .  S
Zr545       O560   2.327       .  S
Zr546       O547   2.368       .  S
Zr546       O548   2.348       .  S
Zr546       O560   2.316       .  S
Zr546       O558   2.341       .  S
C549        C649   1.485       .  S
C550        C593   1.520       .  S
C551        C680   1.538       .  S
C552        C607   1.498       .  S
C553        C635   1.546       .  S
C554        C568   1.474       .  S
C555        C624   1.485       .  S
C556        C873   1.525       .  S
H557        O558   0.965       .  S
H559        O560   0.961       .  S
C561        C565   1.604       .  S
C561        C817   1.591       .  S
C561        C831   1.601       .  S
C562       C2452   1.590   1_455  S
C562        C666   1.608       .  S
C562        C708   1.603       .  S
C562        C719   1.636       .  S
C563        C596   1.603       .  S
C563        C792   1.620       .  S
C563        C803   1.650       .  S
C564        C621   1.601       .  S
C564       C1538   1.632       .  S
C564        C736   1.629       .  S
C564        C747   1.600       .  S
C565        C566   1.456       .  A
C565        C570   1.446       .  A
C566        C567   1.413       .  A
C566        C571   1.450       .  S
C567        C568   1.398       .  A
C567        C574   1.458       .  S
C568        C569   1.402       .  A
C569        C570   1.410       .  A
C569        C572   1.448       .  S
C570        C573   1.450       .  S
C571        N578   1.158       .  T
C572        N577   1.157       .  T
C573        N575   1.158       .  T
C574        N576   1.157       .  T
C579        C580   1.410       .  A
C579        C584   1.409       .  A
C580        C581   1.431       .  A
C580        C585   1.443       .  S
C581        C582   1.445       .  A
C582        C583   1.447       .  A
C583        C584   1.407       .  A
C583        C586   1.442       .  S
C584        C587   1.452       .  S
C585        N592   1.157       .  T
C586        N591   1.157       .  T
C587        N589   1.156       .  T
C588        N590   1.154       .  T
C593        C594   1.406       .  A
C593        C598   1.401       .  A
C594        C595   1.410       .  A
C594        C599   1.441       .  S
C595        C596   1.434       .  A
C595        C602   1.450       .  S
C596        C597   1.458       .  A
C597        C598   1.432       .  A
C597        C600   1.449       .  S
C598        C601   1.446       .  S
C599        N606   1.151       .  T
C600        N605   1.158       .  T
C601        N603   1.156       .  T
C602        N604   1.157       .  T
C607        C608   1.426       .  A
C607        C612   1.399       .  A
C608        C609   1.399       .  A
C608        C613   1.449       .  S
C609        C610   1.410       .  A
C609        C616   1.443       .  S
C610        C611   1.443       .  A
C611        C612   1.411       .  A
C611        C614   1.452       .  S
C612        C615   1.444       .  S
C613        N620   1.155       .  T
C614        N619   1.158       .  T
C615        N617   1.155       .  T
C616        N618   1.156       .  T
C621        C622   1.414       .  A
C621        C626   1.429       .  A
C622        C623   1.396       .  A
C622        C627   1.446       .  S
C623        C624   1.428       .  A
C623        C630   1.451       .  S
C624        C625   1.405       .  A
C625        C626   1.417       .  A
C625        C628   1.450       .  S
C626        C629   1.441       .  S
C627        N634   1.157       .  T
C628        N633   1.157       .  T
C629        N631   1.155       .  T
C630        N632   1.155       .  T
C635        C636   1.434       .  A
C635        C640   1.418       .  A
C636        C637   1.422       .  A
C636        C641   1.453       .  S
C637        C638   1.438       .  A
C637        C644   1.459       .  S
C638       C1464   1.632       .  S
C638        C639   1.435       .  A
C639        C640   1.429       .  A
C639        C642   1.448       .  S
C640        C643   1.445       .  S
C641        N648   1.157       .  T
C642        N647   1.158       .  T
C643        N645   1.155       .  T
C644        N646   1.158       .  T
C649        C650   1.400       .  A
C649        C654   1.404       .  A
C650        C651   1.419       .  A
C650        C655   1.452       .  S
C651        C652   1.445       .  A
C651        C658   1.448       .  S
C652       C2362   1.590       .  S
C652        C653   1.437       .  A
C653        C654   1.413       .  A
C653        C656   1.444       .  S
C654        C657   1.453       .  S
C655        N662   1.157       .  T
C656        N661   1.157       .  T
C657        N659   1.157       .  T
C658        N660   1.156       .  T
C663        C664   1.414       .  A
C663        C668   1.398       .  A
C664        C665   1.410       .  A
C664        C669   1.446       .  S
C665        C666   1.424       .  A
C665        C672   1.450       .  S
C666        C667   1.441       .  A
C667        C668   1.407       .  A
C667        C670   1.451       .  S
C668        C671   1.446       .  S
C669        N676   1.156       .  T
C670        N675   1.158       .  T
C671        N673   1.154       .  T
C672        N674   1.157       .  T
C677       C1406   1.632       .  S
C677        C678   1.447       .  A
C677        C682   1.444       .  A
C678        C679   1.412       .  A
C678        C683   1.457       .  S
C679        C680   1.418       .  A
C679        C686   1.452       .  S
C680        C681   1.414       .  A
C681        C682   1.434       .  A
C681        C684   1.443       .  S
C682        C685   1.449       .  S
C683        N690   1.158       .  T
C684        N689   1.155       .  T
C685        N687   1.158       .  T
C686        N688   1.157       .  T
C691        C692   1.392       .  A
C691        C696   1.390       .  A
C692        C693   1.416       .  A
C692        C697   1.452       .  S
C693        C694   1.463       .  A
C693        C700   1.452       .  S
C694        C695   1.447       .  A
C695        C696   1.403       .  A
C695        C698   1.446       .  S
C696        C699   1.458       .  S
C697        N704   1.157       .  T
C698        N703   1.157       .  T
C699        N701   1.156       .  T
C700        N702   1.157       .  T
C705        C706   1.410       .  A
C705        C710   1.380       .  A
C706        C707   1.422       .  A
C706        C711   1.438       .  S
C707        C708   1.433       .  A
C707        C714   1.446       .  S
C708        C709   1.429       .  A
C709        C710   1.391       .  A
C709        C712   1.450   1_455  S
C710        C713   1.441       .  S
C711       N1618   1.154       .  T
C712        N717   1.158       .  T
C713        N715   1.155       .  T
C714        N716   1.157       .  T
N718       C1611   1.154       .  T
C719        C720   1.451       .  A
C719        C724   1.446   1_455  A
C720        C721   1.438       .  A
C720        C725   1.454       .  S
C721        C722   1.411       .  A
C721        C728   1.446       .  S
C722        C723   1.418   1_455  A
C723        C724   1.421       .  A
C723       C2526   1.456       .  S
C724       C2527   1.454       .  S
C725        N732   1.158       .  T
C726       C2523   1.456       .  S
C726        N731   1.156       .  T
C727       C2524   1.454       .  S
C727        N729   1.158       .  T
C728        N730   1.156       .  T
C733        C734   1.417       .  A
C733        C738   1.436       .  A
C734        C735   1.438       .  A
C734        C739   1.450       .  S
C735        C736   1.440       .  A
C735        C742   1.441       .  S
C736        C737   1.440       .  A
C737        C738   1.421       .  A
C737        C740   1.465       .  S
C738        C741   1.456       .  S
C740        N745   1.158       .  T
C741        N743   1.158       .  T
C742        N744   1.157       .  T
C747       C1648   1.413       .  A
C747        C752   1.455       .  A
C748       C1647   1.413   1_545  A
C748        C749   1.392       .  A
C748        C753   1.452       .  S
C749       C1650   1.411   1_545  A
C749        C756   1.444       .  S
C750       C1649   1.411       .  A
C750        C751   1.400       .  A
C751        C752   1.430       .  A
C751        C754   1.448       .  S
C752        C755   1.446       .  S
C753        N760   1.158       .  T
C754        N759   1.156       .  T
C755        N757   1.157       .  T
C756        N758   1.153       .  T
C761       C1662   1.413   1_545  A
C761        C766   1.457       .  A
C762       C1661   1.413       .  A
C762        C763   1.399       .  A
C762        C767   1.448       .  S
C763       C1664   1.419       .  A
C763        C770   1.448       .  S
C764       C1663   1.419   1_545  A
C764        C765   1.402       .  A
C765        C766   1.419       .  A
C765        C768   1.454       .  S
C766        C769   1.452       .  S
C767        N774   1.158       .  T
C769        N771   1.158       .  T
C770        N772   1.155       .  T
C775        C776   1.410       .  A
C775        C780   1.420       .  A
C776        C777   1.423       .  A
C777        C778   1.438       .  A
C777        C784   1.439       .  S
C778        C779   1.440       .  A
C779        C780   1.420       .  A
C779       C1682   1.451       .  S
C780       C1683   1.454       .  S
C781        N788   1.155       .  T
C782       C1679   1.451       .  S
C782        N787   1.156       .  T
C783       C1680   1.454       .  S
C783        N785   1.158       .  T
C784        N786   1.156       .  T
C789        C790   1.417       .  A
C790        C791   1.409       .  A
C790        C795   1.448       .  S
C791        C792   1.435       .  A
C791        C798   1.456       .  S
C793        C794   1.435       .  A
C793        C796   1.455       .  S
C794        C797   1.448       .  S
C795        N802   1.153       .  T
C796        N801   1.158       .  T
C797       N2599   1.157       .  T
C798        N800   1.158       .  T
N799       C2597   1.157       .  T
C803        C804   1.445       .  A
C804        C805   1.429       .  A
C804        C809   1.451       .  S
C805        C812   1.452       .  S
C806        C807   1.414       .  A
C807        C808   1.432       .  A
C807        C810   1.442       .  S
C808        C811   1.448       .  S
C809        N816   1.159       .  T
C810       N2615   1.152       .  T
C811        N813   1.157       .  T
C812        N814   1.157       .  T
N815       C2610   1.152   1_455  T
C817        C818   1.433       .  A
C817        C822   1.443       .  A
C818        C819   1.408       .  A
C819        C820   1.420       .  A
C820        C821   1.402       .  A
C821        C822   1.423       .  A
C821        C824   1.451       .  S
C822        C825   1.443       .  S
C823        N830   1.158       .  T
C824        N829   1.157       .  T
C825        N827   1.156       .  T
C826        N828   1.156       .  T
C831        C832   1.455       .  A
C831        C836   1.428       .  A
C832        C833   1.419       .  A
C832        C837   1.450       .  S
C833        C834   1.398       .  A
C833        C840   1.454       .  S
C834        C835   1.420       .  A
C835        C836   1.409       .  A
C835        C838   1.457   1_556  S
C836        C839   1.445   1_556  S
C837        N844   1.158       .  T
C839        N841   1.155       .  T
C840        N842   1.157       .  T
C845       C2646   1.404   1_455  A
C845        C850   1.412       .  A
C846       C2645   1.404       .  A
C846        C847   1.430       .  A
C846        C851   1.454       .  S
C847       C2648   1.461       .  A
C847        C854   1.450       .  S
C848       C2251   1.647       .  S
C848       C2647   1.461   1_455  A
C848        C849   1.445       .  A
C849        C850   1.426       .  A
C849        C852   1.444       .  S
C850        C853   1.449       .  S
C851        N858   1.157       .  T
C852        N857   1.157       .  T
C853        N855   1.158       .  T
C854        N856   1.158       .  T
C859        C860   1.413       .  A
C859       C2664   1.389       .  A
C860        C861   1.422       .  A
C860        C865   1.446       .  S
C861        C862   1.434       .  A
C861        C868   1.445       .  S
C862       C2251   1.593   1_655  S
C862       C2663   1.448       .  A
C863       C2662   1.448       .  A
C863        C864   1.379       .  A
C863        C866   1.442       .  S
C864       C2659   1.389       .  A
C864        C867   1.455       .  S
C865        N872   1.155   1_545  T
C866        N871   1.157       .  T
C867        N869   1.157       .  T
C868        N870   1.157       .  T
C873        C874   1.414       .  A
C873        C878   1.423       .  A
C874        C875   1.439       .  A
C874        C879   1.446       .  S
C875        C876   1.449       .  A
C875        C882   1.452       .  S
C876        C877   1.434       .  A
C877        C878   1.392       .  A
C877        C880   1.455       .  S
C878        C881   1.461       .  S
C879        N886   1.157       .  T
C880        N885   1.158       .  T
C881        N883   1.157       .  T
C882        N884   1.158       .  T
C887       C2251   1.622       .  S
C887        C888   1.424       .  A
C887        C892   1.463       .  A
C888        C889   1.422       .  A
C888        C893   1.452       .  S
C889        C890   1.431       .  A
C889        C896   1.451       .  S
C890        C891   1.404       .  A
C891        C892   1.438       .  A
C891        C894   1.453       .  S
C892        C895   1.450       .  S
C893        N900   1.156       .  T
C894        N899   1.157       .  T
C895        N897   1.158       .  T
C896        N898   1.155       .  T
C901       C3098   1.647       .  S
C901       C3112   1.593       .  S
C901       C1326   1.595       .  S
C901       C3137   1.622       .  S
O902       Zr938   2.531       .  S
O902       C2713   1.310       .  A
O903       Zr937   2.557       .  S
O903        C914   1.312       .  A
O904       Zr910   2.554       .  S
O904        C915   1.314       .  A
O905        C916   1.314       .  A
O906       Zr940   2.414   1_455  S
O906        C916   1.289       .  A
O907      Zr1389   2.348       .  S
O907        C915   1.273       .  A
O908        C914   1.276   1_545  A
O909       Zr910   2.289       .  S
O909        C913   1.264   1_455  A
Zr910       O912   2.359       .  S
Zr910       O918   2.320       .  S
O911       Zr937   2.323       .  S
O911       Zr940   2.363   1_455  S
O912      Zr2738   2.326   1_455  S
O912      Zr1389   2.344       .  S
C913       O2702   1.310       .  A
C913       C1309   1.460       .  S
C914       C1183   1.551       .  S
C915       C1270   1.499       .  S
C916       C1172   1.536       .  S
H917        O918   0.965       .  S
O918      Zr1389   2.359       .  S
H919       O2720   0.965       .  S
O920      Zr1838   2.330   1_565  S
O920       Zr940   2.324       .  S
O920       H2719   0.965       .  S
O921      Zr1387   2.500   1_554  S
O921        C944   1.302       .  A
O922       Zr938   2.503       .  S
O922       C1395   1.304       .  A
O923       Zr939   2.526       .  S
O923        C946   1.308       .  A
O924       Zr940   2.497   1_455  S
O924        C947   1.302       .  A
O925      Zr2740   2.540       .  S
O925        C948   1.309       .  A
O926       Zr939   2.560       .  S
O926       C3199   1.309   1_454  A
O927       C2750   1.315       .  A
O928       Zr941   2.570       .  S
O928        C951   1.318       .  A
O929       Zr939   2.401       .  S
O929        C950   1.285       .  A
O930      Zr2740   2.397       .  S
O930       C1401   1.285       .  A
O931      Zr1387   2.317   1_554  S
O932       Zr938   2.358       .  S
O932        C949   1.276       .  A
O933        C948   1.271   1_545  A
O934       Zr937   2.367       .  S
O934        C947   1.275       .  A
O935      Zr2741   2.368   1_455  S
O935        C944   1.281       .  A
O936       Zr941   2.416       .  S
Zr937      O1371   2.500       .  S
Zr937      O1381   2.317       .  S
Zr937      O1393   2.345       .  S
Zr937       O955   2.359       .  S
Zr938      O2712   2.326       .  S
Zr938      O1820   2.330       .  S
Zr938      O1403   2.328       .  S
Zr939      O1357   2.348   1_554  S
Zr939      O1362   2.344   1_554  S
Zr939      O1368   2.359   1_554  S
Zr939      O2753   2.335   1_455  S
Zr940      O2725   2.540       .  S
Zr940      O2730   2.397       .  S
Zr940      O2742   2.349       .  S
Zr940       O955   2.356   1_655  S
Zr941      O2735   2.368       .  S
Zr941      O1392   2.343   1_554  S
Zr941      O2743   2.347       .  S
Zr941      O3205   2.362   1_554  S
O942      Zr2740   2.349       .  S
O942      Zr1391   2.343       .  S
O943      Zr1387   2.345   1_554  S
O943      Zr2741   2.347   1_455  S
C944       C1155   1.476       .  S
C945       O1372   1.304       .  A
C945       C1225   1.522       .  S
C946       C1214   1.486       .  S
C947       C1284   1.498       .  S
C948       C1200   1.498       .  S
C949       O3176   1.309       .  A
C949       C1239   1.524       .  S
C950       O2727   1.315   1_455  A
C950       C1295   1.519       .  S
C951       O1380   1.285   1_554  A
C951       C1256   1.523       .  S
H952        O953   0.966       .  S
O953      Zr1388   2.328   1_554  S
O953      Zr2739   2.335       .  S
H954       O1405   0.966   1_554  S
O955      Zr3191   2.362   1_455  S
O955       H1404   0.966       .  S
C956       C1144   1.603       .  S
C956       C1211   1.598       .  S
C956       C1228   1.607       .  S
O957       Zr993   2.585       .  S
O957        C968   1.321       .  A
O958       Zr992   2.538       .  S
O958        C969   1.306       .  A
O959       Zr965   2.498       .  S
O959        C970   1.302       .  A
O960       Zr965   2.475       .  S
O960        C971   1.296       .  A
O961       Zr995   2.339       .  S
O961        C971   1.277       .  A
O962       Zr994   2.368       .  S
O962        C970   1.278       .  A
O963       Zr965   2.400       .  S
O963        C969   1.286       .  A
O964       Zr965   2.360       .  S
O964        C968   1.275       .  A
Zr965       O966   2.333       .  S
Zr965       O967   2.323       .  S
Zr965       O975   2.344       .  S
Zr965       O973   2.340       .  S
O966       Zr992   2.342       .  S
O966       Zr995   2.348       .  S
O967       Zr993   2.342       .  S
O967       Zr994   2.331       .  S
C968       C1340   1.539       .  S
C969       C1029   1.522       .  S
C970       C1113   1.487       .  S
C971       C1141   1.459       .  S
H972        O973   0.966       .  S
O973       Zr992   2.345       .  S
O973       Zr994   2.339       .  S
H974        O975   0.965       .  S
O975       Zr993   2.300       .  S
O975       Zr995   2.325       .  S
O976       Zr992   2.485       .  S
O976        C999   1.300       .  A
O977       Zr993   2.512       .  S
O977       C1000   1.307       .  A
O978       Zr994   2.536       .  S
O978       C1001   1.309       .  A
O979       Zr995   2.527       .  S
O979       C1002   1.306       .  A
O980       Zr995   2.532       .  S
O980       C1003   1.309       .  A
O981       Zr994   2.524       .  S
O981       C1004   1.307       .  A
O982       Zr996   2.521       .  S
O982       C1005   1.305       .  A
O983       Zr996   2.529       .  S
O983       C1006   1.305       .  A
O984       Zr994   2.295       .  S
O984       C1005   1.265       .  A
O985       Zr995   2.346       .  S
O985       C1006   1.269       .  A
O986       Zr992   2.405       .  S
O986       C1001   1.285       .  A
O987       Zr993   2.323       .  S
O987       C1004   1.273       .  A
O988       Zr993   2.408       .  S
O988       C1003   1.283       .  A
O989       Zr992   2.373       .  S
O989       C1002   1.263       .  A
O990       Zr996   2.412       .  S
O990        C999   1.287       .  A
O991       Zr996   2.397       .  S
O991       C1000   1.285       .  A
Zr992       O998   2.342       .  S
Zr992      O1010   2.347       .  S
Zr993       O997   2.341       .  S
Zr993      O1008   2.369       .  S
Zr994       O998   2.330       .  S
Zr994      O1008   2.347       .  S
Zr995       O997   2.327       .  S
Zr995      O1010   2.327       .  S
Zr996       O997   2.368       .  S
Zr996       O998   2.348       .  S
Zr996      O1010   2.316       .  S
Zr996      O1008   2.341       .  S
C999       C1099   1.485       .  S
C1000      C1043   1.520       .  S
C1001      C1130   1.538       .  S
C1002      C1057   1.498       .  S
C1003      C1085   1.546       .  S
C1004      C1018   1.474       .  S
C1005      C1074   1.485       .  S
C1006      C1323   1.525       .  S
H1007      O1008   0.965       .  S
H1009      O1010   0.961       .  S
C1011      C1015   1.604       .  S
C1011      C1482   1.634       .  S
C1011      C1267   1.591       .  S
C1011      C1281   1.601       .  S
C1012      C2902   1.590   1_455  S
C1012      C1116   1.608       .  S
C1012      C1158   1.603       .  S
C1012      C1169   1.636       .  S
C1013      C1046   1.603       .  S
C1013      C1510   1.591       .  S
C1013      C1242   1.620       .  S
C1013      C1253   1.650       .  S
C1014      C1071   1.601   1_545  S
C1014      C1186   1.629   1_545  S
C1014      C1197   1.600   1_545  S
C1015      C1016   1.456       .  A
C1015      C1020   1.446       .  A
C1016      C1017   1.413       .  A
C1016      C1021   1.450       .  S
C1017      C1018   1.398       .  A
C1017      C1024   1.458       .  S
C1018      C1019   1.402       .  A
C1019      C1020   1.410       .  A
C1019      C1022   1.448       .  S
C1020      C1023   1.450       .  S
C1021      N1028   1.158       .  T
C1022      N1027   1.157       .  T
C1023      N1025   1.158       .  T
C1024      N1026   1.157       .  T
C1029      C1030   1.410       .  A
C1029      C1034   1.409       .  A
C1030      C1031   1.431       .  A
C1030      C1035   1.443       .  S
C1031      C1032   1.445   1_554  A
C1031      C1488   1.435   1_554  S
C1032      C1461   1.634       .  S
C1032      C1033   1.447   1_556  A
C1033      C1034   1.407       .  A
C1033      C1036   1.442       .  S
C1034      C1037   1.452       .  S
C1035      N1042   1.157       .  T
C1036      N1041   1.157       .  T
C1037      N1039   1.156       .  T
C1038      C1481   1.435       .  S
C1038      N1040   1.154       .  T
C1043      C1044   1.406       .  A
C1043      C1048   1.401       .  A
C1044      C1045   1.410       .  A
C1044      C1049   1.441       .  S
C1045      C1046   1.434       .  A
C1045      C1052   1.450       .  S
C1046      C1047   1.458       .  A
C1047      C1048   1.432       .  A
C1047      C1050   1.449       .  S
C1048      C1051   1.446       .  S
C1049      N1056   1.151       .  T
C1050      N1055   1.158       .  T
C1051      N1053   1.156       .  T
C1052      N1054   1.157       .  T
C1057      C1058   1.426       .  A
C1057      C1062   1.399       .  A
C1058      C1059   1.399       .  A
C1058      C1063   1.449       .  S
C1059      C1060   1.410       .  A
C1059      C1066   1.443       .  S
C1060      C1463   1.591   1_554  S
C1060      C1061   1.443       .  A
C1061      C1062   1.411       .  A
C1061      C1064   1.452       .  S
C1062      C1065   1.444       .  S
C1063      N1070   1.155       .  T
C1064      N1069   1.158       .  T
C1065      N1067   1.155       .  T
C1066      N1068   1.156   1_554  T
C1071      C1072   1.414       .  A
C1071      C1076   1.429       .  A
C1072      C1073   1.396       .  A
C1072      C1077   1.446       .  S
C1073      C1074   1.428       .  A
C1073      C1080   1.451       .  S
C1074      C1075   1.405       .  A
C1075      C1076   1.417       .  A
C1075      C1078   1.450       .  S
C1076      C1079   1.441       .  S
C1077      N1084   1.157       .  T
C1078      N1083   1.157       .  T
C1079      N1081   1.155       .  T
C1080      N1082   1.155       .  T
C1085      C1086   1.434       .  A
C1085      C1090   1.418       .  A
C1086      C1087   1.422       .  A
C1086      C1091   1.453       .  S
C1087      C1088   1.438       .  A
C1087      C1094   1.459       .  S
C1088      C1089   1.435       .  A
C1089      C1090   1.429       .  A
C1089      C1092   1.448       .  S
C1090      C1093   1.445       .  S
C1091      N1098   1.157       .  T
C1092      N1097   1.158       .  T
C1093      N1095   1.155       .  T
C1094      N1096   1.158       .  T
C1099      C1100   1.400       .  A
C1099      C1104   1.404       .  A
C1100      C1101   1.419       .  A
C1100      C1105   1.452       .  S
C1101      C1102   1.445       .  A
C1101      C1108   1.448       .  S
C1102      C2812   1.590       .  S
C1102      C1103   1.437       .  A
C1103      C1104   1.413       .  A
C1103      C1106   1.444       .  S
C1104      C1107   1.453       .  S
C1105      N1112   1.157       .  T
C1106      N1111   1.157       .  T
C1107      N1109   1.157       .  T
C1108      N1110   1.156       .  T
C1113      C1114   1.414       .  A
C1113      C1118   1.398       .  A
C1114      C1115   1.410       .  A
C1114      C1119   1.446       .  S
C1115      C1116   1.424       .  A
C1115      C1122   1.450       .  S
C1116      C1117   1.441       .  A
C1117      C1118   1.407       .  A
C1117      C1120   1.451       .  S
C1118      C1121   1.446       .  S
C1119      N1126   1.156       .  T
C1120      N1125   1.158       .  T
C1121      N1123   1.154       .  T
C1122      N1124   1.157       .  T
C1127      C1128   1.447       .  A
C1127      C1132   1.444       .  A
C1128      C1129   1.412       .  A
C1128      C1133   1.457       .  S
C1129      C1130   1.418       .  A
C1129      C1136   1.452       .  S
C1130      C1131   1.414       .  A
C1131      C1132   1.434       .  A
C1131      C1134   1.443       .  S
C1132      C1135   1.449   1_565  S
C1133      N1140   1.158       .  T
C1134      N1139   1.155       .  T
C1135      N1137   1.158       .  T
C1136      N1138   1.157       .  T
C1141      C1142   1.392       .  A
C1141      C1146   1.390       .  A
C1142      C1143   1.416       .  A
C1142      C1147   1.452       .  S
C1143      C1144   1.463       .  A
C1143      C1150   1.452       .  S
C1144      C1145   1.447       .  A
C1145      C1146   1.403       .  A
C1145      C1148   1.446       .  S
C1146      C1149   1.458       .  S
C1147      N1154   1.157       .  T
C1148      N1153   1.157       .  T
C1149      N1151   1.156       .  T
C1150      N1152   1.157       .  T
C1155      C1156   1.410       .  A
C1155      C1160   1.380       .  A
C1156      C1157   1.422       .  A
C1156      C1161   1.438       .  S
C1157      C1158   1.433       .  A
C1157      C1164   1.446       .  S
C1158      C1159   1.429       .  A
C1159      C1160   1.391       .  A
C1159      C1162   1.450   1_455  S
C1160      C1163   1.441       .  S
C1162      N1167   1.158       .  T
C1163      N1165   1.155       .  T
C1164      N1166   1.157       .  T
C1169      C1170   1.451       .  A
C1169      C1174   1.446   1_455  A
C1170      C1171   1.438       .  A
C1170      C1175   1.454       .  S
C1171      C1172   1.411       .  A
C1171      C1178   1.445       .  S
C1172      C1173   1.418   1_455  A
C1173      C1174   1.421       .  A
C1173      C2976   1.456       .  S
C1174      C2977   1.454       .  S
C1175      N1182   1.158       .  T
C1176      C2973   1.456       .  S
C1176      N1181   1.156       .  T
C1177      C2974   1.454       .  S
C1177      N1179   1.158       .  T
C1178      N1180   1.156       .  T
C1183      C1184   1.417       .  A
C1183      C1188   1.436   1_565  A
C1184      C1185   1.438       .  A
C1184      C1189   1.450       .  S
C1185      C1186   1.440       .  A
C1185      C1192   1.441       .  S
C1186      C1187   1.440   1_565  A
C1187      C1188   1.421       .  A
C1187      C1190   1.465       .  S
C1188      C1191   1.456       .  S
C1189      N1646   1.158       .  T
C1190      N1195   1.158       .  T
C1191      N1193   1.158       .  T
C1192      N1194   1.157       .  T
N1196      C1639   1.158       .  T
C1197      C1202   1.455       .  A
C1198      C1199   1.392       .  A
C1198      C1203   1.452       .  S
C1199      C1206   1.444       .  S
C1200      C1201   1.400       .  A
C1201      C1202   1.430       .  A
C1201      C1204   1.448       .  S
C1202      C1205   1.446       .  S
C1203      N1210   1.158       .  T
C1204      N1209   1.156       .  T
C1205      N1207   1.157       .  T
C1206      N1208   1.153       .  T
C1211      C1216   1.457       .  A
C1212      C1213   1.399       .  A
C1212      C1217   1.448       .  S
C1213      C1220   1.448       .  S
C1214      C1215   1.402       .  A
C1215      C1216   1.419       .  A
C1215      C1218   1.454       .  S
C1216      C1219   1.452       .  S
C1217      N1224   1.158       .  T
C1218      N1673   1.157       .  T
C1219      N1221   1.158       .  T
C1220      N1222   1.155       .  T
N1223      C1668   1.157       .  T
C1225      C1226   1.410       .  A
C1225      C1230   1.420       .  A
C1226      C1227   1.423       .  A
C1226      C1681   1.447   1_554  S
C1227      C1228   1.438       .  A
C1227      C1234   1.439       .  S
C1228      C1229   1.440       .  A
C1229      C1230   1.420       .  A
C1231      C1676   1.447       .  S
C1231      N1238   1.155       .  T
C1232      N1237   1.156       .  T
C1233      N1235   1.158       .  T
C1234      N1236   1.156       .  T
C1239      C1240   1.417       .  A
C1239      C1694   1.411       .  A
C1240      C1241   1.409       .  A
C1240      C1245   1.448       .  S
C1241      C1242   1.435       .  A
C1241      C1248   1.456       .  S
C1242      C1693   1.456       .  A
C1243      C1692   1.456   1_554  A
C1243      C1244   1.435       .  A
C1243      C1246   1.455       .  S
C1244      C1689   1.411   1_554  A
C1244      C1247   1.448       .  S
C1245      N1252   1.153       .  T
C1246      N1251   1.158       .  T
C1247      N3049   1.157       .  T
C1248      N1250   1.158       .  T
N1249      C3047   1.157       .  T
C1253      C1254   1.445       .  A
C1253      C1708   1.439       .  A
C1254      C1255   1.429       .  A
C1254      C1259   1.451       .  S
C1255      C1706   1.407       .  A
C1255      C1262   1.452       .  S
C1256      C1705   1.407   1_554  A
C1256      C1257   1.414       .  A
C1257      C1258   1.432   1_554  A
C1257      C1260   1.442       .  S
C1258      C1703   1.439       .  A
C1258      C1261   1.448       .  S
C1259      N1266   1.159       .  T
C1260      N3065   1.152       .  T
C1261      N1263   1.157       .  T
C1262      N1264   1.157       .  T
N1265      C3060   1.152   1_455  T
C1267      C1268   1.433       .  A
C1267      C1272   1.443       .  A
C1268      C1269   1.408       .  A
C1268      C1723   1.458       .  S
C1269      C1270   1.420       .  A
C1269      C1726   1.449       .  S
C1270      C1271   1.402       .  A
C1271      C1272   1.423       .  A
C1271      C1274   1.451       .  S
C1272      C1275   1.443       .  S
C1273      C1718   1.458       .  S
C1273      N1280   1.158   1_556  T
C1274      N1279   1.157       .  T
C1275      N1277   1.156       .  T
C1276      C1719   1.449   1_554  S
C1276      N1278   1.156       .  T
C1281      C1282   1.455       .  A
C1281      C1286   1.428       .  A
C1282      C1283   1.419       .  A
C1282      C1287   1.450       .  S
C1283      C1284   1.398       .  A
C1283      C1290   1.454       .  S
C1284      C1285   1.420       .  A
C1285      C1286   1.409       .  A
C1285      C1288   1.457       .  S
C1286      C1289   1.445       .  S
C1287      N1294   1.158       .  T
C1288      N1743   1.156       .  T
C1289      N1291   1.155       .  T
C1290      N1292   1.157       .  T
N1293      C1738   1.156       .  T
C1295      C3096   1.404   1_455  A
C1295      C1300   1.412       .  A
C1296      C3095   1.404       .  A
C1296      C1297   1.430       .  A
C1296      C1301   1.454       .  S
C1297      C3098   1.461       .  A
C1297      C1304   1.450       .  S
C1298      C2701   1.647       .  S
C1298      C3097   1.461   1_455  A
C1298      C1299   1.445       .  A
C1299      C1300   1.426       .  A
C1299      C1302   1.444       .  S
C1300      C1303   1.449       .  S
C1301      N1308   1.157       .  T
C1302      N1307   1.157       .  T
C1303      N1305   1.158       .  T
C1304      N1306   1.158       .  T
C1309      C1310   1.413       .  A
C1309      C3114   1.389       .  A
C1310      C1311   1.422       .  A
C1310      C1315   1.446       .  S
C1311      C1312   1.434       .  A
C1311      C1318   1.445       .  S
C1312      C2701   1.593   1_655  S
C1312      C3113   1.448       .  A
C1313      C3112   1.448       .  A
C1313      C1314   1.379       .  A
C1313      C1316   1.442       .  S
C1314      C3109   1.389       .  A
C1314      C1317   1.455       .  S
C1315      N1322   1.155       .  T
C1316      N1321   1.157       .  T
C1317      N1319   1.157       .  T
C1318      N1320   1.157       .  T
C1323      C1324   1.414       .  A
C1323      C1328   1.423       .  A
C1324      C1325   1.439       .  A
C1324      C1329   1.446       .  S
C1325      C1326   1.449       .  A
C1325      C1332   1.452       .  S
C1326      C1327   1.434       .  A
C1327      C1328   1.392       .  A
C1327      C1330   1.455       .  S
C1328      C1331   1.461       .  S
C1329      N1336   1.157       .  T
C1330      N1335   1.158       .  T
C1331      N1333   1.157       .  T
C1332      N1334   1.158       .  T
C1337      C2701   1.622       .  S
C1337      C1338   1.424       .  A
C1337      C1342   1.463       .  A
C1338      C1339   1.422       .  A
C1338      C1343   1.452       .  S
C1339      C1340   1.431       .  A
C1339      C1346   1.451       .  S
C1340      C1341   1.404       .  A
C1341      C1342   1.438       .  A
C1341      C1344   1.453       .  S
C1342      C1345   1.450       .  S
C1343      N1350   1.156       .  T
C1344      N1349   1.157       .  T
C1345      N1347   1.158       .  T
C1346      N1348   1.155       .  T
C1351      C3548   1.647       .  S
C1351      C3562   1.593       .  S
C1351      C1776   1.595       .  S
C1351      C3587   1.622       .  S
O1352     Zr1388   2.531       .  S
O1352      C3163   1.310       .  A
O1353     Zr1387   2.557       .  S
O1353      C1364   1.312       .  A
O1354     Zr1360   2.554       .  S
O1354      C1365   1.314       .  A
O1355      C1366   1.314       .  A
O1356     Zr1390   2.414   1_455  S
O1356      C1366   1.289       .  A
O1357      C1365   1.273       .  A
O1358      C1364   1.276   1_545  A
O1359     Zr1360   2.289       .  S
O1359      C1363   1.264   1_455  A
Zr1360     O1362   2.359       .  S
Zr1360     O1368   2.320       .  S
O1361     Zr1387   2.323       .  S
O1361     Zr1390   2.363   1_455  S
O1362     Zr3188   2.326   1_455  S
C1363      O3152   1.310       .  A
C1363      C1759   1.460       .  S
C1364      C1633   1.551       .  S
C1365      C1720   1.499       .  S
C1366      C1622   1.536       .  S
H1367      O1368   0.965       .  S
H1369      O3170   0.965       .  S
O1370     Zr2288   2.330   1_565  S
O1370     Zr1390   2.324       .  S
O1370      H3169   0.965       .  S
O1371      C1394   1.302       .  A
O1372     Zr1388   2.503   1_554  S
O1373     Zr1389   2.526       .  S
O1373      C1396   1.308       .  A
O1374     Zr1390   2.497   1_455  S
O1374      C1397   1.302       .  A
O1375     Zr3190   2.540       .  S
O1375      C1398   1.309       .  A
O1376     Zr1389   2.560       .  S
O1376      C2749   1.309   1_455  A
O1377      C3200   1.315       .  A
O1378     Zr1391   2.569       .  S
O1378      C1401   1.318       .  A
O1379     Zr1389   2.401       .  S
O1379      C1400   1.285       .  A
O1380     Zr3190   2.397       .  S
O1382     Zr1388   2.358       .  S
O1382      C1399   1.276       .  A
O1383      C1398   1.271   1_545  A
O1384     Zr1387   2.367       .  S
O1384      C1397   1.275       .  A
O1385     Zr3191   2.368   1_455  S
O1385      C1394   1.281       .  A
O1386     Zr1391   2.416       .  S
Zr1387     O1405   2.359       .  S
Zr1388     O3162   2.326       .  S
Zr1388     O2270   2.330       .  S
Zr1389     O3203   2.335   1_455  S
Zr1390     O3175   2.540       .  S
Zr1390     O3180   2.397       .  S
Zr1390     O3192   2.349       .  S
Zr1390     O1405   2.356   1_655  S
Zr1391     O3185   2.368       .  S
Zr1391     O3193   2.347       .  S
Zr1391     O2755   2.362       .  S
O1392     Zr3190   2.349       .  S
O1393     Zr3191   2.347   1_455  S
C1394      C1605   1.476       .  S
C1395      C1675   1.522       .  S
C1396      C1664   1.486       .  S
C1397      C1734   1.498       .  S
C1398      C1650   1.498       .  S
C1399      O2726   1.309   1_556  A
C1399      C1689   1.524       .  S
C1400      O3177   1.315   1_455  A
C1400      C1745   1.519       .  S
C1401      C1706   1.523       .  S
H1402      O1403   0.966       .  S
O1403     Zr3189   2.335       .  S
O1405     Zr2741   2.362   1_456  S
C1406      C1594   1.603       .  S
C1406      C1661   1.598       .  S
C1406      C1678   1.607       .  S
O1407     Zr1443   2.585       .  S
O1407      C1418   1.321       .  A
O1408     Zr1442   2.538       .  S
O1408      C1419   1.306       .  A
O1409     Zr1415   2.498       .  S
O1409      C1420   1.302       .  A
O1410     Zr1415   2.475       .  S
O1410      C1421   1.296       .  A
O1411     Zr1445   2.339       .  S
O1411      C1421   1.277       .  A
O1412     Zr1444   2.368       .  S
O1412      C1420   1.278       .  A
O1413     Zr1415   2.400       .  S
O1413      C1419   1.286       .  A
O1414     Zr1415   2.360       .  S
O1414      C1418   1.275       .  A
Zr1415     O1416   2.333       .  S
Zr1415     O1417   2.323       .  S
Zr1415     O1425   2.344       .  S
Zr1415     O1423   2.340       .  S
O1416     Zr1442   2.342       .  S
O1416     Zr1445   2.348       .  S
O1417     Zr1443   2.342       .  S
O1417     Zr1444   2.331       .  S
C1418      C1790   1.539       .  S
C1419      C1479   1.522       .  S
C1420      C1563   1.487       .  S
C1421      C1591   1.459       .  S
H1422      O1423   0.966       .  S
O1423     Zr1442   2.345       .  S
O1423     Zr1444   2.339       .  S
H1424      O1425   0.965       .  S
O1425     Zr1443   2.300       .  S
O1425     Zr1445   2.325       .  S
O1426     Zr1442   2.485       .  S
O1426      C1449   1.300       .  A
O1427     Zr1443   2.512       .  S
O1427      C1450   1.307       .  A
O1428     Zr1444   2.536       .  S
O1428      C1451   1.309       .  A
O1429     Zr1445   2.527       .  S
O1429      C1452   1.306       .  A
O1430     Zr1445   2.532       .  S
O1430      C1453   1.309       .  A
O1431     Zr1444   2.524       .  S
O1431      C1454   1.307       .  A
O1432     Zr1446   2.521       .  S
O1432      C1455   1.305       .  A
O1433     Zr1446   2.529       .  S
O1433      C1456   1.305       .  A
O1434     Zr1444   2.295       .  S
O1434      C1455   1.265       .  A
O1435     Zr1445   2.346       .  S
O1435      C1456   1.269       .  A
O1436     Zr1442   2.405       .  S
O1436      C1451   1.285       .  A
O1437     Zr1443   2.323       .  S
O1437      C1454   1.273       .  A
O1438     Zr1443   2.408       .  S
O1438      C1453   1.283       .  A
O1439     Zr1442   2.373       .  S
O1439      C1452   1.263       .  A
O1440     Zr1446   2.412       .  S
O1440      C1449   1.287       .  A
O1441     Zr1446   2.397       .  S
O1441      C1450   1.285       .  A
Zr1442     O1448   2.342       .  S
Zr1442     O1460   2.347       .  S
Zr1443     O1447   2.341       .  S
Zr1443     O1458   2.369       .  S
Zr1444     O1448   2.330       .  S
Zr1444     O1458   2.347       .  S
Zr1445     O1447   2.327       .  S
Zr1445     O1460   2.327       .  S
Zr1446     O1447   2.368       .  S
Zr1446     O1448   2.348       .  S
Zr1446     O1460   2.316       .  S
Zr1446     O1458   2.341       .  S
C1449      C1549   1.485       .  S
C1450      C1493   1.520       .  S
C1451      C1580   1.538       .  S
C1452      C1507   1.498       .  S
C1453      C1535   1.546       .  S
C1454      C1468   1.474       .  S
C1455      C1524   1.485       .  S
C1456      C1773   1.525       .  S
H1457      O1458   0.965       .  S
H1459      O1460   0.961       .  S
C1461      C1465   1.604       .  S
C1461      C1717   1.591       .  S
C1461      C1731   1.601       .  S
C1462      C3352   1.590   1_455  S
C1462      C1566   1.608       .  S
C1462      C1608   1.603       .  S
C1462      C1619   1.636       .  S
C1463      C1496   1.603       .  S
C1463      C1692   1.620       .  S
C1463      C1703   1.650       .  S
C1464      C1521   1.601   1_545  S
C1464      C1636   1.629   1_545  S
C1464      C1647   1.600   1_545  S
C1465      C1466   1.456       .  A
C1465      C1470   1.446       .  A
C1466      C1467   1.413       .  A
C1466      C1471   1.450       .  S
C1467      C1468   1.398       .  A
C1467      C1474   1.458       .  S
C1468      C1469   1.402       .  A
C1469      C1470   1.410       .  A
C1469      C1472   1.448       .  S
C1470      C1473   1.450       .  S
C1471      N1478   1.158       .  T
C1472      N1477   1.157       .  T
C1473      N1475   1.158       .  T
C1474      N1476   1.157       .  T
C1479      C1480   1.410       .  A
C1479      C1484   1.409       .  A
C1480      C1481   1.431       .  A
C1480      C1485   1.443       .  S
C1481      C1482   1.445       .  A
C1482      C1483   1.447       .  A
C1483      C1484   1.407       .  A
C1483      C1486   1.442       .  S
C1484      C1487   1.452       .  S
C1485      N1492   1.157       .  T
C1486      N1491   1.157       .  T
C1487      N1489   1.156       .  T
C1488      N1490   1.154       .  T
C1493      C1494   1.406       .  A
C1493      C1498   1.401       .  A
C1494      C1495   1.410       .  A
C1494      C1499   1.441       .  S
C1495      C1496   1.434       .  A
C1495      C1502   1.450       .  S
C1496      C1497   1.458       .  A
C1497      C1498   1.432       .  A
C1497      C1500   1.449       .  S
C1498      C1501   1.446       .  S
C1499      N1506   1.151       .  T
C1500      N1505   1.158       .  T
C1501      N1503   1.156       .  T
C1502      N1504   1.157       .  T
C1507      C1508   1.426       .  A
C1507      C1512   1.399       .  A
C1508      C1509   1.399       .  A
C1508      C1513   1.449       .  S
C1509      C1510   1.410       .  A
C1509      C1516   1.443       .  S
C1510      C1511   1.443       .  A
C1511      C1512   1.411       .  A
C1511      C1514   1.452       .  S
C1512      C1515   1.444       .  S
C1513      N1520   1.155       .  T
C1514      N1519   1.158       .  T
C1515      N1517   1.155       .  T
C1516      N1518   1.156       .  T
C1521      C1522   1.414       .  A
C1521      C1526   1.429       .  A
C1522      C1523   1.396       .  A
C1522      C1527   1.446       .  S
C1523      C1524   1.428       .  A
C1523      C1530   1.451       .  S
C1524      C1525   1.405       .  A
C1525      C1526   1.417       .  A
C1525      C1528   1.450       .  S
C1526      C1529   1.441       .  S
C1527      N1534   1.157       .  T
C1528      N1533   1.157       .  T
C1529      N1531   1.155       .  T
C1530      N1532   1.155       .  T
C1535      C1536   1.434       .  A
C1535      C1540   1.418       .  A
C1536      C1537   1.422       .  A
C1536      C1541   1.453       .  S
C1537      C1538   1.438       .  A
C1537      C1544   1.459       .  S
C1538      C1539   1.435       .  A
C1539      C1540   1.429       .  A
C1539      C1542   1.448       .  S
C1540      C1543   1.445       .  S
C1541      N1548   1.157       .  T
C1542      N1547   1.158       .  T
C1543      N1545   1.155       .  T
C1544      N1546   1.158       .  T
C1549      C1550   1.400       .  A
C1549      C1554   1.404       .  A
C1550      C1551   1.419       .  A
C1550      C1555   1.452       .  S
C1551      C1552   1.445       .  A
C1551      C1558   1.448       .  S
C1552      C3262   1.590       .  S
C1552      C1553   1.437       .  A
C1553      C1554   1.413       .  A
C1553      C1556   1.444       .  S
C1554      C1557   1.453       .  S
C1555      N1562   1.157       .  T
C1556      N1561   1.157       .  T
C1557      N1559   1.157       .  T
C1558      N1560   1.156       .  T
C1563      C1564   1.414       .  A
C1563      C1568   1.398       .  A
C1564      C1565   1.410       .  A
C1564      C1569   1.446       .  S
C1565      C1566   1.424       .  A
C1565      C1572   1.450       .  S
C1566      C1567   1.441       .  A
C1567      C1568   1.407       .  A
C1567      C1570   1.451       .  S
C1568      C1571   1.446       .  S
C1569      N1576   1.156       .  T
C1570      N1575   1.158       .  T
C1571      N1573   1.154       .  T
C1572      N1574   1.157       .  T
C1577      C1578   1.447       .  A
C1577      C1582   1.444       .  A
C1578      C1579   1.412       .  A
C1578      C1583   1.457       .  S
C1579      C1580   1.418       .  A
C1579      C1586   1.452       .  S
C1580      C1581   1.414       .  A
C1581      C1582   1.434       .  A
C1581      C1584   1.443       .  S
C1582      C1585   1.449   1_565  S
C1583      N1590   1.158       .  T
C1584      N1589   1.155       .  T
C1585      N1587   1.158       .  T
C1586      N1588   1.157       .  T
C1591      C1592   1.392       .  A
C1591      C1596   1.390       .  A
C1592      C1593   1.416       .  A
C1592      C1597   1.452       .  S
C1593      C1594   1.463       .  A
C1593      C1600   1.452       .  S
C1594      C1595   1.447       .  A
C1595      C1596   1.403       .  A
C1595      C1598   1.446       .  S
C1596      C1599   1.458       .  S
C1597      N1604   1.157       .  T
C1598      N1603   1.157       .  T
C1599      N1601   1.156       .  T
C1600      N1602   1.157       .  T
C1605      C1606   1.410       .  A
C1605      C1610   1.380       .  A
C1606      C1607   1.422       .  A
C1606      C1611   1.438       .  S
C1607      C1608   1.433       .  A
C1607      C1614   1.446       .  S
C1608      C1609   1.429       .  A
C1609      C1610   1.391       .  A
C1609      C1612   1.450   1_455  S
C1610      C1613   1.441       .  S
C1612      N1617   1.158       .  T
C1613      N1615   1.155       .  T
C1614      N1616   1.157       .  T
C1619      C1620   1.451       .  A
C1619      C1624   1.446   1_455  A
C1620      C1621   1.438       .  A
C1620      C1625   1.454       .  S
C1621      C1622   1.411       .  A
C1621      C1628   1.445       .  S
C1622      C1623   1.418   1_455  A
C1623      C1624   1.421       .  A
C1623      C3426   1.456       .  S
C1624      C3427   1.454       .  S
C1625      N1632   1.158       .  T
C1626      C3423   1.456       .  S
C1626      N1631   1.156       .  T
C1627      C3424   1.454       .  S
C1627      N1629   1.158       .  T
C1628      N1630   1.156       .  T
C1633      C1634   1.417       .  A
C1633      C1638   1.436   1_565  A
C1634      C1635   1.438       .  A
C1634      C1639   1.450       .  S
C1635      C1636   1.440       .  A
C1635      C1642   1.441       .  S
C1636      C1637   1.440   1_565  A
C1637      C1638   1.421       .  A
C1637      C1640   1.465       .  S
C1638      C1641   1.456       .  S
C1640      N1645   1.158       .  T
C1641      N1643   1.158       .  T
C1642      N1644   1.157       .  T
C1647      C1652   1.455       .  A
C1648      C1649   1.392       .  A
C1648      C1653   1.452       .  S
C1649      C1656   1.444       .  S
C1650      C1651   1.400       .  A
C1651      C1652   1.430       .  A
C1651      C1654   1.448       .  S
C1652      C1655   1.446       .  S
C1653      N1660   1.158       .  T
C1654      N1659   1.156       .  T
C1655      N1657   1.157       .  T
C1656      N1658   1.153       .  T
C1661      C1666   1.457       .  A
C1662      C1663   1.399       .  A
C1662      C1667   1.448       .  S
C1663      C1670   1.448       .  S
C1664      C1665   1.402       .  A
C1665      C1666   1.419       .  A
C1665      C1668   1.454       .  S
C1666      C1669   1.452       .  S
C1667      N1674   1.158       .  T
C1669      N1671   1.158       .  T
C1670      N1672   1.155       .  T
C1675      C1676   1.410       .  A
C1675      C1680   1.420       .  A
C1676      C1677   1.423       .  A
C1677      C1678   1.438       .  A
C1677      C1684   1.439       .  S
C1678      C1679   1.440       .  A
C1679      C1680   1.420       .  A
C1681      N1688   1.155       .  T
C1682      N1687   1.156       .  T
C1683      N1685   1.158       .  T
C1684      N1686   1.156       .  T
C1689      C1690   1.417       .  A
C1690      C1691   1.409       .  A
C1690      C1695   1.448       .  S
C1691      C1692   1.435       .  A
C1691      C1698   1.456       .  S
C1693      C1694   1.435       .  A
C1693      C1696   1.455       .  S
C1694      C1697   1.448       .  S
C1695      N1702   1.153       .  T
C1696      N1701   1.158       .  T
C1697      N3499   1.157       .  T
C1698      N1700   1.158       .  T
N1699      C3497   1.157       .  T
C1703      C1704   1.445       .  A
C1704      C1705   1.429       .  A
C1704      C1709   1.451       .  S
C1705      C1712   1.452       .  S
C1706      C1707   1.414       .  A
C1707      C1708   1.432       .  A
C1707      C1710   1.442       .  S
C1708      C1711   1.448       .  S
C1709      N1716   1.159       .  T
C1710      N3515   1.152       .  T
C1711      N1713   1.157       .  T
C1712      N1714   1.157       .  T
N1715      C3510   1.152   1_455  T
C1717      C1718   1.433       .  A
C1717      C1722   1.443       .  A
C1718      C1719   1.408       .  A
C1719      C1720   1.420       .  A
C1720      C1721   1.402       .  A
C1721      C1722   1.423       .  A
C1721      C1724   1.451       .  S
C1722      C1725   1.443       .  S
C1723      N1730   1.158       .  T
C1724      N1729   1.157       .  T
C1725      N1727   1.156       .  T
C1726      N1728   1.156       .  T
C1731      C1732   1.455       .  A
C1731      C1736   1.428       .  A
C1732      C1733   1.419       .  A
C1732      C1737   1.450       .  S
C1733      C1734   1.398       .  A
C1733      C1740   1.454       .  S
C1734      C1735   1.420       .  A
C1735      C1736   1.409       .  A
C1735      C1738   1.457   1_556  S
C1736      C1739   1.445   1_556  S
C1737      N1744   1.158       .  T
C1739      N1741   1.155       .  T
C1740      N1742   1.157       .  T
C1745      C3546   1.404   1_455  A
C1745      C1750   1.412       .  A
C1746      C3545   1.404       .  A
C1746      C1747   1.430       .  A
C1746      C1751   1.454       .  S
C1747      C3548   1.461       .  A
C1747      C1754   1.450       .  S
C1748      C3151   1.647       .  S
C1748      C3547   1.461   1_455  A
C1748      C1749   1.445       .  A
C1749      C1750   1.426       .  A
C1749      C1752   1.444       .  S
C1750      C1753   1.449       .  S
C1751      N1758   1.157       .  T
C1752      N1757   1.157       .  T
C1753      N1755   1.158       .  T
C1754      N1756   1.158       .  T
C1759      C1760   1.413       .  A
C1759      C3564   1.389       .  A
C1760      C1761   1.422       .  A
C1760      C1765   1.446       .  S
C1761      C1762   1.434       .  A
C1761      C1768   1.445       .  S
C1762      C3151   1.593   1_655  S
C1762      C3563   1.448       .  A
C1763      C3562   1.448       .  A
C1763      C1764   1.379       .  A
C1763      C1766   1.442       .  S
C1764      C3559   1.389       .  A
C1764      C1767   1.455       .  S
C1765      N1772   1.155       .  T
C1766      N1771   1.157       .  T
C1767      N1769   1.157       .  T
C1768      N1770   1.157       .  T
C1773      C1774   1.414       .  A
C1773      C1778   1.423       .  A
C1774      C1775   1.439       .  A
C1774      C1779   1.446       .  S
C1775      C1776   1.449       .  A
C1775      C1782   1.452       .  S
C1776      C1777   1.434       .  A
C1777      C1778   1.392       .  A
C1777      C1780   1.455       .  S
C1778      C1781   1.461       .  S
C1779      N1786   1.157       .  T
C1780      N1785   1.158       .  T
C1781      N1783   1.157       .  T
C1782      N1784   1.158       .  T
C1787      C3151   1.622       .  S
C1787      C1788   1.424       .  A
C1787      C1792   1.463       .  A
C1788      C1789   1.422       .  A
C1788      C1793   1.452       .  S
C1789      C1790   1.431       .  A
C1789      C1796   1.451       .  S
C1790      C1791   1.404       .  A
C1791      C1792   1.438       .  A
C1791      C1794   1.453       .  S
C1792      C1795   1.450       .  S
C1793      N1800   1.156       .  T
C1794      N1799   1.157       .  T
C1795      N1797   1.158       .  T
C1796      N1798   1.155       .  T
C1801      C2226   1.595   1_455  S
O1802     Zr1838   2.531       .  S
O1803     Zr1837   2.557       .  S
O1803      C1814   1.312       .  A
O1804     Zr1810   2.554       .  S
O1804      C1815   1.314       .  A
O1805     Zr2710   2.554       .  S
O1805      C1816   1.314       .  A
O1806     Zr1840   2.414       .  S
O1806      C1816   1.289       .  A
O1807     Zr2289   2.348       .  S
O1807      C1815   1.273       .  A
O1808     Zr2710   2.378       .  S
O1808      C1814   1.276       .  A
O1809     Zr1810   2.289       .  S
O1809      C1813   1.264       .  A
Zr1810     O2705   2.554   1_545  S
Zr1810     O2708   2.378       .  S
Zr1810     O2711   2.332   1_545  S
Zr1810     O1812   2.359       .  S
Zr1810     O2720   2.347   1_545  S
Zr1810     O1818   2.320       .  S
O1811     Zr2710   2.332       .  S
O1811     Zr1837   2.323       .  S
O1811     Zr1840   2.363       .  S
O1812     Zr2289   2.344       .  S
C1813      C2209   1.460       .  S
C1814      C2083   1.551       .  S
C1815      C2170   1.499       .  S
C1816      C2072   1.536       .  S
H1817      O1818   0.965       .  S
O1818     Zr2737   2.312   1_545  S
O1818     Zr2289   2.359       .  S
O1820     Zr2710   2.347       .  S
O1820     Zr1840   2.324       .  S
O1821     Zr2287   2.500   1_554  S
O1821      C1844   1.302       .  A
O1822     Zr1838   2.503       .  S
O1822      C2295   1.304       .  A
O1823     Zr1839   2.526       .  S
O1823      C1846   1.308       .  A
O1824     Zr1840   2.497       .  S
O1824      C1847   1.302       .  A
O1825      C1848   1.309       .  A
O1826     Zr1839   2.560       .  S
O1827     Zr2741   2.556   1_545  S
O1828     Zr1841   2.570       .  S
O1828      C1851   1.318       .  A
O1829     Zr1839   2.401       .  S
O1829      C1850   1.285       .  A
O1830      C2301   1.285       .  A
O1831     Zr2287   2.317   1_554  S
O1831      C2746   1.271       .  A
O1832     Zr1838   2.358       .  S
O1832      C1849   1.276       .  A
O1833     Zr2738   2.318       .  S
O1833      C1848   1.271       .  A
O1834     Zr1837   2.367       .  S
O1834      C1847   1.275       .  A
O1835      C1844   1.281       .  A
O1836     Zr1841   2.416       .  S
O1836      C2745   1.288       .  A
Zr1837     O2271   2.500       .  S
Zr1837     O2281   2.317       .  S
Zr1837     O2718   2.312       .  S
Zr1837     O2293   2.345       .  S
Zr1837     O1855   2.359       .  S
Zr1838     O2733   2.318       .  S
Zr1838     O2742   2.339   1_545  S
Zr1838     O2303   2.328       .  S
Zr1839     O2257   2.348   1_554  S
Zr1839     O2262   2.344   1_554  S
Zr1839     O2268   2.359   1_554  S
Zr1839     O2743   2.325   1_545  S
Zr1840     O1855   2.356       .  S
Zr1841     O2727   2.556       .  S
Zr1841     O2292   2.343   1_554  S
Zr1841     O2753   2.348       .  S
O1842     Zr2738   2.339       .  S
O1842     Zr2291   2.343       .  S
O1843     Zr2287   2.345   1_554  S
O1843     Zr2739   2.325       .  S
C1844      C2055   1.476       .  S
C1845      O2272   1.304       .  A
C1845      O2736   1.288   1_545  A
C1845      C2125   1.522       .  S
C1846      O2731   1.271   1_545  A
C1846      C2114   1.486       .  S
C1847      C2184   1.498       .  S
C1848      C2100   1.498       .  S
C1849      C2139   1.524       .  S
C1850      C2195   1.519       .  S
C1851      O2280   1.285   1_554  A
C1851      C2156   1.523       .  S
H1852      O1853   0.966       .  S
O1853     Zr2288   2.328   1_554  S
O1853     Zr2741   2.348   1_545  S
H1854      O2305   0.966   1_554  S
O1855      H2304   0.966       .  S
C1856      C2927   1.632   1_545  S
C1856      C2044   1.603       .  S
C1856      C2111   1.598       .  S
C1856      C2128   1.607       .  S
O1857     Zr1893   2.585       .  S
O1857      C1868   1.321       .  A
O1858     Zr1892   2.538       .  S
O1858      C1869   1.306       .  A
O1859     Zr1865   2.498       .  S
O1859      C1870   1.302       .  A
O1860     Zr1865   2.475       .  S
O1860      C1871   1.296       .  A
O1861     Zr1895   2.339       .  S
O1861      C1871   1.277       .  A
O1862     Zr1894   2.368       .  S
O1862      C1870   1.278       .  A
O1863     Zr1865   2.400       .  S
O1863      C1869   1.286       .  A
O1864     Zr1865   2.360       .  S
O1864      C1868   1.275       .  A
Zr1865     O1866   2.333       .  S
Zr1865     O1867   2.323       .  S
Zr1865     O1875   2.344       .  S
Zr1865     O1873   2.340       .  S
O1866     Zr1892   2.342       .  S
O1866     Zr1895   2.348       .  S
O1867     Zr1893   2.342       .  S
O1867     Zr1894   2.331       .  S
C1868      C2240   1.539       .  S
C1869      C1929   1.522       .  S
C1870      C2013   1.487       .  S
C1871      C2041   1.459       .  S
H1872      O1873   0.966       .  S
O1873     Zr1892   2.345       .  S
O1873     Zr1894   2.339       .  S
H1874      O1875   0.965       .  S
O1875     Zr1893   2.300       .  S
O1875     Zr1895   2.325       .  S
O1876     Zr1892   2.485       .  S
O1876      C1899   1.300       .  A
O1877     Zr1893   2.512       .  S
O1877      C1900   1.307       .  A
O1878     Zr1894   2.536       .  S
O1878      C1901   1.309       .  A
O1879     Zr1895   2.527       .  S
O1879      C1902   1.306       .  A
O1880     Zr1895   2.532       .  S
O1880      C1903   1.309       .  A
O1881     Zr1894   2.524       .  S
O1881      C1904   1.307       .  A
O1882     Zr1896   2.521       .  S
O1882      C1905   1.305       .  A
O1883     Zr1896   2.529       .  S
O1883      C1906   1.305       .  A
O1884     Zr1894   2.295       .  S
O1884      C1905   1.265       .  A
O1885     Zr1895   2.346       .  S
O1885      C1906   1.269       .  A
O1886     Zr1892   2.405       .  S
O1886      C1901   1.285       .  A
O1887     Zr1893   2.323       .  S
O1887      C1904   1.273       .  A
O1888     Zr1893   2.408       .  S
O1888      C1903   1.283       .  A
O1889     Zr1892   2.373       .  S
O1889      C1902   1.263       .  A
O1890     Zr1896   2.412       .  S
O1890      C1899   1.287       .  A
O1891     Zr1896   2.397       .  S
O1891      C1900   1.285       .  A
Zr1892     O1898   2.342       .  S
Zr1892     O1910   2.347       .  S
Zr1893     O1897   2.341       .  S
Zr1893     O1908   2.369       .  S
Zr1894     O1898   2.330       .  S
Zr1894     O1908   2.347       .  S
Zr1895     O1897   2.327       .  S
Zr1895     O1910   2.327       .  S
Zr1896     O1897   2.368       .  S
Zr1896     O1898   2.348       .  S
Zr1896     O1910   2.316       .  S
Zr1896     O1908   2.341       .  S
C1899      C1999   1.485       .  S
C1900      C1943   1.520       .  S
C1901      C2030   1.538       .  S
C1902      C1957   1.498       .  S
C1903      C1985   1.546       .  S
C1904      C1918   1.474       .  S
C1905      C1974   1.485       .  S
C1906      C2223   1.525       .  S
H1907      O1908   0.965       .  S
H1909      O1910   0.961       .  S
C1911      C1915   1.604       .  S
C1911      C2382   1.634       .  S
C1911      C2167   1.591       .  S
C1911      C2181   1.601       .  S
C1912      C2016   1.608       .  S
C1912      C2058   1.603       .  S
C1912      C2069   1.636       .  S
C1913      C1946   1.603       .  S
C1913      C2410   1.591       .  S
C1913      C2142   1.620       .  S
C1913      C2153   1.650       .  S
C1914      C1971   1.601       .  S
C1914      C2888   1.632       .  S
C1914      C2086   1.629       .  S
C1914      C2097   1.600       .  S
C1915      C1916   1.456       .  A
C1915      C1920   1.446       .  A
C1916      C1917   1.413       .  A
C1916      C1921   1.450       .  S
C1917      C1918   1.398       .  A
C1917      C1924   1.458       .  S
C1918      C1919   1.402       .  A
C1919      C1920   1.410       .  A
C1919      C1922   1.448       .  S
C1920      C1923   1.450       .  S
C1921      N1928   1.158       .  T
C1922      N1927   1.157       .  T
C1923      N1925   1.158       .  T
C1924      N1926   1.157       .  T
C1929      C1930   1.410       .  A
C1929      C1934   1.409       .  A
C1930      C1931   1.431       .  A
C1930      C1935   1.443       .  S
C1931      C1932   1.445   1_554  A
C1931      C2388   1.435   1_554  S
C1932      C2361   1.634       .  S
C1932      C1933   1.447   1_556  A
C1933      C1934   1.407       .  A
C1933      C1936   1.442       .  S
C1934      C1937   1.452       .  S
C1935      N1942   1.157       .  T
C1936      N1941   1.157       .  T
C1937      N1939   1.156       .  T
C1938      C2381   1.435       .  S
C1938      N1940   1.154       .  T
C1943      C1944   1.406       .  A
C1943      C1948   1.401       .  A
C1944      C1945   1.410       .  A
C1944      C1949   1.441       .  S
C1945      C1946   1.434       .  A
C1945      C1952   1.450       .  S
C1946      C1947   1.458       .  A
C1947      C1948   1.432       .  A
C1947      C1950   1.449       .  S
C1948      C1951   1.446       .  S
C1949      N1956   1.151       .  T
C1950      N1955   1.158       .  T
C1951      N1953   1.156       .  T
C1952      N1954   1.157       .  T
C1957      C1958   1.426       .  A
C1957      C1962   1.399       .  A
C1958      C1959   1.399       .  A
C1958      C1963   1.449       .  S
C1959      C1960   1.410       .  A
C1959      C1966   1.443       .  S
C1960      C2363   1.591   1_554  S
C1960      C1961   1.443       .  A
C1961      C1962   1.411       .  A
C1961      C1964   1.452       .  S
C1962      C1965   1.444       .  S
C1963      N1970   1.155       .  T
C1964      N1969   1.158       .  T
C1965      N1967   1.155       .  T
C1966      N1968   1.156   1_554  T
C1971      C1972   1.414       .  A
C1971      C1976   1.429       .  A
C1972      C1973   1.396       .  A
C1972      C1977   1.446       .  S
C1973      C1974   1.428       .  A
C1973      C1980   1.451       .  S
C1974      C1975   1.405       .  A
C1975      C1976   1.417       .  A
C1975      C1978   1.450       .  S
C1976      C1979   1.441       .  S
C1977      N1984   1.157       .  T
C1978      N1983   1.157       .  T
C1979      N1981   1.155       .  T
C1980      N1982   1.155       .  T
C1985      C1986   1.434       .  A
C1985      C1990   1.418       .  A
C1986      C1987   1.422       .  A
C1986      C1991   1.453       .  S
C1987      C1988   1.438       .  A
C1987      C1994   1.459       .  S
C1988      C2814   1.632       .  S
C1988      C1989   1.435       .  A
C1989      C1990   1.429       .  A
C1989      C1992   1.448       .  S
C1990      C1993   1.445       .  S
C1991      N1998   1.157       .  T
C1992      N1997   1.158       .  T
C1993      N1995   1.155       .  T
C1994      N1996   1.158       .  T
C1999      C2000   1.400       .  A
C1999      C2004   1.404       .  A
C2000      C2001   1.419       .  A
C2000      C2005   1.452       .  S
C2001      C2002   1.445       .  A
C2001      C2008   1.448       .  S
C2002      C2003   1.437       .  A
C2003      C2004   1.413       .  A
C2003      C2006   1.444       .  S
C2004      C2007   1.453       .  S
C2005      N2012   1.157       .  T
C2006      N2011   1.157   1_655  T
C2007      N2009   1.157       .  T
C2008      N2010   1.156       .  T
C2013      C2014   1.414       .  A
C2013      C2018   1.398       .  A
C2014      C2015   1.410       .  A
C2014      C2019   1.446       .  S
C2015      C2016   1.424       .  A
C2015      C2022   1.450       .  S
C2016      C2017   1.441       .  A
C2017      C2018   1.407       .  A
C2017      C2020   1.451       .  S
C2018      C2021   1.446       .  S
C2019      N2026   1.156       .  T
C2020      N2025   1.158       .  T
C2021      N2023   1.154       .  T
C2022      N2024   1.157       .  T
C2027      C2756   1.632       .  S
C2027      C2028   1.447       .  A
C2027      C2032   1.444       .  A
C2028      C2029   1.412       .  A
C2028      C2033   1.457       .  S
C2029      C2030   1.418       .  A
C2029      C2036   1.452       .  S
C2030      C2031   1.414       .  A
C2031      C2032   1.434       .  A
C2031      C2034   1.443       .  S
C2032      C2035   1.449       .  S
C2033      N2040   1.158       .  T
C2034      N2039   1.155       .  T
C2035      N2037   1.158       .  T
C2036      N2038   1.157       .  T
C2041      C2042   1.392       .  A
C2041      C2046   1.390       .  A
C2042      C2043   1.416       .  A
C2042      C2047   1.452       .  S
C2043      C2044   1.463       .  A
C2043      C2050   1.452       .  S
C2044      C2045   1.447       .  A
C2045      C2046   1.403       .  A
C2045      C2048   1.446       .  S
C2046      C2049   1.458       .  S
C2047      N2054   1.157       .  T
C2048      N2053   1.157       .  T
C2049      N2051   1.156       .  T
C2050      N2052   1.157       .  T
C2055      C2056   1.410       .  A
C2055      C2060   1.380       .  A
C2056      C2057   1.422       .  A
C2056      C2061   1.438       .  S
C2057      C2058   1.433       .  A
C2057      C2064   1.446       .  S
C2058      C2059   1.429       .  A
C2059      C2060   1.391       .  A
C2059      C2062   1.450       .  S
C2060      C2063   1.441       .  S
C2061      N2968   1.154       .  T
C2062      N2067   1.158       .  T
C2063      N2065   1.155       .  T
C2064      N2066   1.157       .  T
N2068      C2961   1.154       .  T
C2069      C2070   1.451       .  A
C2069      C2074   1.446       .  A
C2070      C2071   1.438       .  A
C2070      C2075   1.454       .  S
C2071      C2072   1.411       .  A
C2071      C2078   1.445       .  S
C2072      C2073   1.418       .  A
C2073      C2074   1.421       .  A
C2075      N2082   1.158       .  T
C2076      N2081   1.156       .  T
C2077      N2079   1.158       .  T
C2078      N2080   1.156       .  T
C2083      C2084   1.417       .  A
C2083      C2088   1.436       .  A
C2084      C2085   1.438       .  A
C2084      C2089   1.450       .  S
C2085      C2086   1.440       .  A
C2085      C2092   1.441       .  S
C2086      C2087   1.440       .  A
C2087      C2088   1.421       .  A
C2087      C2090   1.465       .  S
C2088      C2091   1.456       .  S
C2089      N2546   1.158       .  T
C2090      N2095   1.158       .  T
C2091      N2093   1.158       .  T
C2092      N2094   1.157       .  T
N2096      C2539   1.158       .  T
C2097      C2998   1.413       .  A
C2097      C2102   1.455       .  A
C2098      C2997   1.413   1_545  A
C2098      C2099   1.392       .  A
C2098      C2103   1.452       .  S
C2099      C3000   1.411   1_545  A
C2099      C2106   1.444       .  S
C2100      C2999   1.411       .  A
C2100      C2101   1.400       .  A
C2101      C2102   1.430       .  A
C2101      C2104   1.448       .  S
C2102      C2105   1.446       .  S
C2103      N2110   1.158       .  T
C2104      N2109   1.156       .  T
C2105      N2107   1.157       .  T
C2106      N2108   1.153       .  T
C2111      C3012   1.413   1_545  A
C2111      C2116   1.457       .  A
C2112      C3011   1.413       .  A
C2112      C2113   1.399       .  A
C2112      C2117   1.448       .  S
C2113      C3014   1.419       .  A
C2113      C2120   1.448       .  S
C2114      C3013   1.419   1_545  A
C2114      C2115   1.402       .  A
C2115      C2116   1.419       .  A
C2115      C2118   1.454       .  S
C2116      C2119   1.452       .  S
C2117      N2124   1.158       .  T
C2118      N2573   1.157       .  T
C2119      N2121   1.158       .  T
C2120      N2122   1.155       .  T
N2123      C2568   1.157       .  T
C2125      C2126   1.410       .  A
C2125      C2130   1.420       .  A
C2126      C2127   1.423       .  A
C2126      C2581   1.447   1_554  S
C2127      C2128   1.438       .  A
C2127      C2134   1.439       .  S
C2128      C2129   1.440       .  A
C2129      C2130   1.420       .  A
C2129      C3032   1.451       .  S
C2130      C3033   1.454       .  S
C2131      C2576   1.447       .  S
C2131      N2138   1.155       .  T
C2132      C3029   1.451       .  S
C2132      N2137   1.156       .  T
C2133      C3030   1.454       .  S
C2133      N2135   1.158       .  T
C2134      N2136   1.156       .  T
C2139      C2140   1.417       .  A
C2139      C2594   1.411       .  A
C2140      C2141   1.409       .  A
C2140      C2145   1.448       .  S
C2141      C2142   1.435       .  A
C2141      C2148   1.456       .  S
C2142      C2593   1.456       .  A
C2143      C2592   1.456   1_554  A
C2143      C2144   1.435       .  A
C2143      C2146   1.455       .  S
C2144      C2589   1.411   1_554  A
C2144      C2147   1.448       .  S
C2145      N2152   1.153       .  T
C2146      N2151   1.158       .  T
C2148      N2150   1.158       .  T
C2153      C2154   1.445       .  A
C2153      C2608   1.439       .  A
C2154      C2155   1.429       .  A
C2154      C2159   1.451       .  S
C2155      C2606   1.407       .  A
C2155      C2162   1.452       .  S
C2156      C2605   1.407   1_554  A
C2156      C2157   1.414       .  A
C2157      C2158   1.432   1_554  A
C2157      C2160   1.442       .  S
C2158      C2603   1.439       .  A
C2158      C2161   1.448       .  S
C2159      N2166   1.159       .  T
C2161      N2163   1.157       .  T
C2162      N2164   1.157       .  T
C2167      C2168   1.433       .  A
C2167      C2172   1.443       .  A
C2168      C2169   1.408       .  A
C2168      C2623   1.458       .  S
C2169      C2170   1.420       .  A
C2169      C2626   1.449       .  S
C2170      C2171   1.402       .  A
C2171      C2172   1.423       .  A
C2171      C2174   1.451       .  S
C2172      C2175   1.443       .  S
C2173      C2618   1.458       .  S
C2173      N2180   1.158   1_556  T
C2174      N2179   1.157       .  T
C2175      N2177   1.156       .  T
C2176      C2619   1.449   1_554  S
C2176      N2178   1.156       .  T
C2181      C2182   1.455       .  A
C2181      C2186   1.428       .  A
C2182      C2183   1.419       .  A
C2182      C2187   1.450       .  S
C2183      C2184   1.398       .  A
C2183      C2190   1.454       .  S
C2184      C2185   1.420       .  A
C2185      C2186   1.409       .  A
C2185      C2188   1.457       .  S
C2186      C2189   1.445       .  S
C2187      N2194   1.158       .  T
C2188      N2643   1.156       .  T
C2189      N2191   1.155       .  T
C2190      N2192   1.157       .  T
N2193      C2638   1.156       .  T
C2195      C2200   1.412       .  A
C2196      C2197   1.430       .  A
C2196      C2201   1.454       .  S
C2197      C2204   1.450       .  S
C2198      C2199   1.445       .  A
C2199      C2200   1.426       .  A
C2199      C2202   1.444       .  S
C2200      C2203   1.449       .  S
C2201      N2208   1.157       .  T
C2202      N2207   1.157       .  T
C2203      N2205   1.158       .  T
C2204      N2206   1.158       .  T
C2209      C2210   1.413       .  A
C2210      C2211   1.422       .  A
C2210      C2215   1.446       .  S
C2211      C2212   1.434       .  A
C2211      C2218   1.445       .  S
C2213      C2214   1.379       .  A
C2213      C2216   1.442       .  S
C2214      C2217   1.455   1_655  S
C2215      N2222   1.155   1_545  T
C2216      N2221   1.157       .  T
C2217      N2219   1.157       .  T
C2218      N2220   1.157       .  T
C2223      C2224   1.414       .  A
C2223      C2228   1.423       .  A
C2224      C2225   1.439       .  A
C2224      C2229   1.446       .  S
C2225      C2226   1.449       .  A
C2225      C2232   1.452   1_655  S
C2226      C2227   1.434       .  A
C2227      C2228   1.392       .  A
C2227      C2230   1.455       .  S
C2228      C2231   1.461       .  S
C2229      N2236   1.157       .  T
C2230      N2235   1.158       .  T
C2231      N2233   1.157       .  T
C2232      N2234   1.158       .  T
C2237      C2238   1.424       .  A
C2237      C2242   1.463       .  A
C2238      C2239   1.422       .  A
C2238      C2243   1.452       .  S
C2239      C2240   1.431       .  A
C2239      C2246   1.451       .  S
C2240      C2241   1.404       .  A
C2241      C2242   1.438       .  A
C2241      C2244   1.453       .  S
C2242      C2245   1.450       .  S
C2243      N2250   1.156       .  T
C2244      N2249   1.157       .  T
C2245      N2247   1.158       .  T
C2246      N2248   1.155       .  T
C2251      C2676   1.595   1_455  S
O2252     Zr2288   2.531       .  S
O2253     Zr2287   2.557       .  S
O2253      C2264   1.312       .  A
O2254     Zr2260   2.554       .  S
O2254      C2265   1.314       .  A
O2255     Zr3160   2.554       .  S
O2255      C2266   1.314       .  A
O2256     Zr2290   2.414       .  S
O2256      C2266   1.289       .  A
O2257      C2265   1.273       .  A
O2258     Zr3160   2.378       .  S
O2258      C2264   1.276       .  A
O2259     Zr2260   2.289       .  S
O2259      C2263   1.264       .  A
Zr2260     O3155   2.554   1_545  S
Zr2260     O3158   2.378       .  S
Zr2260     O3161   2.332   1_545  S
Zr2260     O2262   2.359       .  S
Zr2260     O3170   2.347   1_545  S
Zr2260     O2268   2.320       .  S
O2261     Zr3160   2.332       .  S
O2261     Zr2287   2.323       .  S
O2261     Zr2290   2.363       .  S
C2263      C2659   1.460       .  S
C2264      C2533   1.551       .  S
C2265      C2620   1.499       .  S
C2266      C2522   1.536       .  S
H2267      O2268   0.965       .  S
O2268     Zr3187   2.312   1_545  S
O2270     Zr3160   2.347       .  S
O2270     Zr2290   2.324       .  S
O2271      C2294   1.302       .  A
O2272     Zr2288   2.503   1_554  S
O2273     Zr2289   2.526       .  S
O2273      C2296   1.308       .  A
O2274     Zr2290   2.497       .  S
O2274      C2297   1.302       .  A
O2275      C2298   1.309       .  A
O2276     Zr2289   2.560       .  S
O2277     Zr3191   2.556   1_545  S
O2278     Zr2291   2.570       .  S
O2278      C2301   1.318       .  A
O2279     Zr2289   2.401       .  S
O2279      C2300   1.285       .  A
O2281      C3196   1.271       .  A
O2282     Zr2288   2.358       .  S
O2282      C2299   1.276       .  A
O2283     Zr3188   2.318       .  S
O2283      C2298   1.271       .  A
O2284     Zr2287   2.367       .  S
O2284      C2297   1.275       .  A
O2285      C2294   1.281       .  A
O2286     Zr2291   2.416       .  S
O2286      C3195   1.288       .  A
Zr2287     O3168   2.312       .  S
Zr2287     O2305   2.359       .  S
Zr2288     O3183   2.318       .  S
Zr2288     O3192   2.339   1_545  S
Zr2289     O3193   2.325   1_545  S
Zr2290     O2305   2.356       .  S
Zr2291     O3177   2.556       .  S
Zr2291     O3203   2.348       .  S
O2292     Zr3188   2.339       .  S
O2293     Zr3189   2.325       .  S
C2294      C2505   1.476       .  S
C2295      O3186   1.288   1_545  A
C2295      C2575   1.522       .  S
C2296      O3181   1.271   1_545  A
C2296      C2564   1.486       .  S
C2297      C2634   1.498       .  S
C2298      C2550   1.498       .  S
C2299      C2589   1.524       .  S
C2300      C2645   1.519       .  S
C2301      C2606   1.523       .  S
H2302      O2303   0.966       .  S
O2303     Zr3191   2.348   1_545  S
C2306      C3377   1.632   1_545  S
C2306      C2494   1.603       .  S
C2306      C2561   1.598       .  S
C2306      C2578   1.607       .  S
O2307     Zr2343   2.585       .  S
O2307      C2318   1.321       .  A
O2308     Zr2342   2.538       .  S
O2308      C2319   1.306       .  A
O2309     Zr2315   2.498       .  S
O2309      C2320   1.302       .  A
O2310     Zr2315   2.475       .  S
O2310      C2321   1.296       .  A
O2311     Zr2345   2.339       .  S
O2311      C2321   1.277       .  A
O2312     Zr2344   2.368       .  S
O2312      C2320   1.278       .  A
O2313     Zr2315   2.400       .  S
O2313      C2319   1.286       .  A
O2314     Zr2315   2.360       .  S
O2314      C2318   1.275       .  A
Zr2315     O2316   2.333       .  S
Zr2315     O2317   2.323       .  S
Zr2315     O2325   2.344       .  S
Zr2315     O2323   2.340       .  S
O2316     Zr2342   2.342       .  S
O2316     Zr2345   2.348       .  S
O2317     Zr2343   2.342       .  S
O2317     Zr2344   2.331       .  S
C2318      C2690   1.539       .  S
C2319      C2379   1.522       .  S
C2320      C2463   1.487       .  S
C2321      C2491   1.459       .  S
H2322      O2323   0.966       .  S
O2323     Zr2342   2.345       .  S
O2323     Zr2344   2.339       .  S
H2324      O2325   0.965       .  S
O2325     Zr2343   2.300       .  S
O2325     Zr2345   2.325       .  S
O2326     Zr2342   2.485       .  S
O2326      C2349   1.300       .  A
O2327     Zr2343   2.512       .  S
O2327      C2350   1.307       .  A
O2328     Zr2344   2.536       .  S
O2328      C2351   1.309       .  A
O2329     Zr2345   2.527       .  S
O2329      C2352   1.306       .  A
O2330     Zr2345   2.532       .  S
O2330      C2353   1.309       .  A
O2331     Zr2344   2.524       .  S
O2331      C2354   1.307       .  A
O2332     Zr2346   2.521       .  S
O2332      C2355   1.305       .  A
O2333     Zr2346   2.529       .  S
O2333      C2356   1.305       .  A
O2334     Zr2344   2.295       .  S
O2334      C2355   1.265       .  A
O2335     Zr2345   2.346       .  S
O2335      C2356   1.269       .  A
O2336     Zr2342   2.405       .  S
O2336      C2351   1.285       .  A
O2337     Zr2343   2.323       .  S
O2337      C2354   1.273       .  A
O2338     Zr2343   2.408       .  S
O2338      C2353   1.283       .  A
O2339     Zr2342   2.373       .  S
O2339      C2352   1.263       .  A
O2340     Zr2346   2.412       .  S
O2340      C2349   1.287       .  A
O2341     Zr2346   2.397       .  S
O2341      C2350   1.285       .  A
Zr2342     O2348   2.342       .  S
Zr2342     O2360   2.347       .  S
Zr2343     O2347   2.341       .  S
Zr2343     O2358   2.369       .  S
Zr2344     O2348   2.330       .  S
Zr2344     O2358   2.347       .  S
Zr2345     O2347   2.327       .  S
Zr2345     O2360   2.327       .  S
Zr2346     O2347   2.368       .  S
Zr2346     O2348   2.348       .  S
Zr2346     O2360   2.316       .  S
Zr2346     O2358   2.341       .  S
C2349      C2449   1.485       .  S
C2350      C2393   1.520       .  S
C2351      C2480   1.538       .  S
C2352      C2407   1.498       .  S
C2353      C2435   1.546       .  S
C2354      C2368   1.474       .  S
C2355      C2424   1.485       .  S
C2356      C2673   1.525       .  S
H2357      O2358   0.965       .  S
H2359      O2360   0.961       .  S
C2361      C2365   1.604       .  S
C2361      C2617   1.591       .  S
C2361      C2631   1.601       .  S
C2362      C2466   1.608       .  S
C2362      C2508   1.603       .  S
C2362      C2519   1.636       .  S
C2363      C2396   1.603       .  S
C2363      C2592   1.620       .  S
C2363      C2603   1.650       .  S
C2364      C2421   1.601       .  S
C2364      C3338   1.632       .  S
C2364      C2536   1.629       .  S
C2364      C2547   1.600       .  S
C2365      C2366   1.456       .  A
C2365      C2370   1.446       .  A
C2366      C2367   1.413       .  A
C2366      C2371   1.450       .  S
C2367      C2368   1.398       .  A
C2367      C2374   1.458       .  S
C2368      C2369   1.402       .  A
C2369      C2370   1.410       .  A
C2369      C2372   1.448       .  S
C2370      C2373   1.450       .  S
C2371      N2378   1.158       .  T
C2372      N2377   1.157       .  T
C2373      N2375   1.158       .  T
C2374      N2376   1.157       .  T
C2379      C2380   1.410       .  A
C2379      C2384   1.409       .  A
C2380      C2381   1.431       .  A
C2380      C2385   1.443       .  S
C2381      C2382   1.445       .  A
C2382      C2383   1.447       .  A
C2383      C2384   1.407       .  A
C2383      C2386   1.442       .  S
C2384      C2387   1.452       .  S
C2385      N2392   1.157       .  T
C2386      N2391   1.157       .  T
C2387      N2389   1.156       .  T
C2388      N2390   1.154       .  T
C2393      C2394   1.406       .  A
C2393      C2398   1.401       .  A
C2394      C2395   1.410       .  A
C2394      C2399   1.441       .  S
C2395      C2396   1.434       .  A
C2395      C2402   1.450       .  S
C2396      C2397   1.458       .  A
C2397      C2398   1.432       .  A
C2397      C2400   1.449       .  S
C2398      C2401   1.446       .  S
C2399      N2406   1.151       .  T
C2400      N2405   1.158       .  T
C2401      N2403   1.156       .  T
C2402      N2404   1.157       .  T
C2407      C2408   1.426       .  A
C2407      C2412   1.399       .  A
C2408      C2409   1.399       .  A
C2408      C2413   1.449       .  S
C2409      C2410   1.410       .  A
C2409      C2416   1.443       .  S
C2410      C2411   1.443       .  A
C2411      C2412   1.411       .  A
C2411      C2414   1.452       .  S
C2412      C2415   1.444       .  S
C2413      N2420   1.155       .  T
C2414      N2419   1.158       .  T
C2415      N2417   1.155       .  T
C2416      N2418   1.156       .  T
C2421      C2422   1.414       .  A
C2421      C2426   1.429       .  A
C2422      C2423   1.396       .  A
C2422      C2427   1.446       .  S
C2423      C2424   1.428       .  A
C2423      C2430   1.451       .  S
C2424      C2425   1.405       .  A
C2425      C2426   1.417       .  A
C2425      C2428   1.450       .  S
C2426      C2429   1.441       .  S
C2427      N2434   1.157       .  T
C2428      N2433   1.157       .  T
C2429      N2431   1.155       .  T
C2430      N2432   1.155       .  T
C2435      C2436   1.434       .  A
C2435      C2440   1.418       .  A
C2436      C2437   1.422       .  A
C2436      C2441   1.453       .  S
C2437      C2438   1.438       .  A
C2437      C2444   1.459       .  S
C2438      C3264   1.632       .  S
C2438      C2439   1.435       .  A
C2439      C2440   1.429       .  A
C2439      C2442   1.448       .  S
C2440      C2443   1.445       .  S
C2441      N2448   1.157       .  T
C2442      N2447   1.158       .  T
C2443      N2445   1.155       .  T
C2444      N2446   1.158       .  T
C2449      C2450   1.400       .  A
C2449      C2454   1.404       .  A
C2450      C2451   1.419       .  A
C2450      C2455   1.452       .  S
C2451      C2452   1.445       .  A
C2451      C2458   1.448       .  S
C2452      C2453   1.437       .  A
C2453      C2454   1.413       .  A
C2453      C2456   1.444       .  S
C2454      C2457   1.453       .  S
C2455      N2462   1.157       .  T
C2456      N2461   1.157   1_655  T
C2457      N2459   1.157       .  T
C2458      N2460   1.156       .  T
C2463      C2464   1.414       .  A
C2463      C2468   1.398       .  A
C2464      C2465   1.410       .  A
C2464      C2469   1.446       .  S
C2465      C2466   1.424       .  A
C2465      C2472   1.450       .  S
C2466      C2467   1.441       .  A
C2467      C2468   1.407       .  A
C2467      C2470   1.451       .  S
C2468      C2471   1.446       .  S
C2469      N2476   1.156       .  T
C2470      N2475   1.158       .  T
C2471      N2473   1.154       .  T
C2472      N2474   1.157       .  T
C2477      C3206   1.632       .  S
C2477      C2478   1.447       .  A
C2477      C2482   1.444       .  A
C2478      C2479   1.412       .  A
C2478      C2483   1.457       .  S
C2479      C2480   1.418       .  A
C2479      C2486   1.452       .  S
C2480      C2481   1.414       .  A
C2481      C2482   1.434       .  A
C2481      C2484   1.443       .  S
C2482      C2485   1.449       .  S
C2483      N2490   1.158       .  T
C2484      N2489   1.155       .  T
C2485      N2487   1.158       .  T
C2486      N2488   1.157       .  T
C2491      C2492   1.392       .  A
C2491      C2496   1.390       .  A
C2492      C2493   1.416       .  A
C2492      C2497   1.452       .  S
C2493      C2494   1.463       .  A
C2493      C2500   1.452       .  S
C2494      C2495   1.447       .  A
C2495      C2496   1.403       .  A
C2495      C2498   1.446       .  S
C2496      C2499   1.458       .  S
C2497      N2504   1.157       .  T
C2498      N2503   1.157       .  T
C2499      N2501   1.156       .  T
C2500      N2502   1.157       .  T
C2505      C2506   1.410       .  A
C2505      C2510   1.380       .  A
C2506      C2507   1.422       .  A
C2506      C2511   1.438       .  S
C2507      C2508   1.433       .  A
C2507      C2514   1.446       .  S
C2508      C2509   1.429       .  A
C2509      C2510   1.391       .  A
C2509      C2512   1.450       .  S
C2510      C2513   1.441       .  S
C2511      N3418   1.154       .  T
C2512      N2517   1.158       .  T
C2513      N2515   1.155       .  T
C2514      N2516   1.157       .  T
N2518      C3411   1.154       .  T
C2519      C2520   1.451       .  A
C2519      C2524   1.446       .  A
C2520      C2521   1.438       .  A
C2520      C2525   1.454       .  S
C2521      C2522   1.411       .  A
C2521      C2528   1.446       .  S
C2522      C2523   1.418       .  A
C2523      C2524   1.421       .  A
C2525      N2532   1.158       .  T
C2526      N2531   1.156       .  T
C2527      N2529   1.158       .  T
C2528      N2530   1.156       .  T
C2533      C2534   1.417       .  A
C2533      C2538   1.436       .  A
C2534      C2535   1.438       .  A
C2534      C2539   1.450       .  S
C2535      C2536   1.440       .  A
C2535      C2542   1.441       .  S
C2536      C2537   1.440       .  A
C2537      C2538   1.421       .  A
C2537      C2540   1.465       .  S
C2538      C2541   1.456       .  S
C2540      N2545   1.158       .  T
C2541      N2543   1.158       .  T
C2542      N2544   1.157       .  T
C2547      C3448   1.413       .  A
C2547      C2552   1.455       .  A
C2548      C3447   1.413   1_545  A
C2548      C2549   1.392       .  A
C2548      C2553   1.452       .  S
C2549      C3450   1.411   1_545  A
C2549      C2556   1.444       .  S
C2550      C3449   1.411       .  A
C2550      C2551   1.400       .  A
C2551      C2552   1.430       .  A
C2551      C2554   1.448       .  S
C2552      C2555   1.446       .  S
C2553      N2560   1.158       .  T
C2554      N2559   1.156       .  T
C2555      N2557   1.157       .  T
C2556      N2558   1.153       .  T
C2561      C3462   1.413   1_545  A
C2561      C2566   1.457       .  A
C2562      C3461   1.413       .  A
C2562      C2563   1.399       .  A
C2562      C2567   1.448       .  S
C2563      C3464   1.419       .  A
C2563      C2570   1.448       .  S
C2564      C3463   1.419   1_545  A
C2564      C2565   1.402       .  A
C2565      C2566   1.419       .  A
C2565      C2568   1.454       .  S
C2566      C2569   1.452       .  S
C2567      N2574   1.158       .  T
C2569      N2571   1.158       .  T
C2570      N2572   1.155       .  T
C2575      C2576   1.410       .  A
C2575      C2580   1.420       .  A
C2576      C2577   1.423       .  A
C2577      C2578   1.438       .  A
C2577      C2584   1.439       .  S
C2578      C2579   1.440       .  A
C2579      C2580   1.420       .  A
C2579      C3482   1.451       .  S
C2580      C3483   1.454       .  S
C2581      N2588   1.155       .  T
C2582      C3479   1.451       .  S
C2582      N2587   1.156       .  T
C2583      C3480   1.454       .  S
C2583      N2585   1.158       .  T
C2584      N2586   1.156       .  T
C2589      C2590   1.417       .  A
C2590      C2591   1.409       .  A
C2590      C2595   1.448       .  S
C2591      C2592   1.435       .  A
C2591      C2598   1.456       .  S
C2593      C2594   1.435       .  A
C2593      C2596   1.455       .  S
C2594      C2597   1.448       .  S
C2595      N2602   1.153       .  T
C2596      N2601   1.158       .  T
C2598      N2600   1.158       .  T
C2603      C2604   1.445       .  A
C2604      C2605   1.429       .  A
C2604      C2609   1.451       .  S
C2605      C2612   1.452       .  S
C2606      C2607   1.414       .  A
C2607      C2608   1.432       .  A
C2607      C2610   1.442       .  S
C2608      C2611   1.448       .  S
C2609      N2616   1.159       .  T
C2611      N2613   1.157       .  T
C2612      N2614   1.157       .  T
C2617      C2618   1.433       .  A
C2617      C2622   1.443       .  A
C2618      C2619   1.408       .  A
C2619      C2620   1.420       .  A
C2620      C2621   1.402       .  A
C2621      C2622   1.423       .  A
C2621      C2624   1.451       .  S
C2622      C2625   1.443       .  S
C2623      N2630   1.158       .  T
C2624      N2629   1.157       .  T
C2625      N2627   1.156       .  T
C2626      N2628   1.156       .  T
C2631      C2632   1.455       .  A
C2631      C2636   1.428       .  A
C2632      C2633   1.419       .  A
C2632      C2637   1.450       .  S
C2633      C2634   1.398       .  A
C2633      C2640   1.454       .  S
C2634      C2635   1.420       .  A
C2635      C2636   1.409       .  A
C2635      C2638   1.457   1_556  S
C2636      C2639   1.445   1_556  S
C2637      N2644   1.158       .  T
C2639      N2641   1.155       .  T
C2640      N2642   1.157       .  T
C2645      C2650   1.412       .  A
C2646      C2647   1.430       .  A
C2646      C2651   1.454       .  S
C2647      C2654   1.450       .  S
C2648      C2649   1.445       .  A
C2649      C2650   1.426       .  A
C2649      C2652   1.444       .  S
C2650      C2653   1.449       .  S
C2651      N2658   1.157       .  T
C2652      N2657   1.157       .  T
C2653      N2655   1.158       .  T
C2654      N2656   1.158       .  T
C2659      C2660   1.413       .  A
C2660      C2661   1.422       .  A
C2660      C2665   1.446       .  S
C2661      C2662   1.434       .  A
C2661      C2668   1.445       .  S
C2663      C2664   1.379       .  A
C2663      C2666   1.442       .  S
C2664      C2667   1.455   1_655  S
C2665      N2672   1.155   1_545  T
C2666      N2671   1.157       .  T
C2667      N2669   1.157       .  T
C2668      N2670   1.157       .  T
C2673      C2674   1.414       .  A
C2673      C2678   1.423       .  A
C2674      C2675   1.439       .  A
C2674      C2679   1.446       .  S
C2675      C2676   1.449       .  A
C2675      C2682   1.452   1_655  S
C2676      C2677   1.434       .  A
C2677      C2678   1.392       .  A
C2677      C2680   1.455       .  S
C2678      C2681   1.461       .  S
C2679      N2686   1.157       .  T
C2680      N2685   1.158       .  T
C2681      N2683   1.157       .  T
C2682      N2684   1.158       .  T
C2687      C2688   1.424       .  A
C2687      C2692   1.463       .  A
C2688      C2689   1.422       .  A
C2688      C2693   1.452       .  S
C2689      C2690   1.431       .  A
C2689      C2696   1.451       .  S
C2690      C2691   1.404       .  A
C2691      C2692   1.438       .  A
C2691      C2694   1.453       .  S
C2692      C2695   1.450       .  S
C2693      N2700   1.156       .  T
C2694      N2699   1.157       .  T
C2695      N2697   1.158       .  T
C2696      N2698   1.155       .  T
C2701      C3126   1.595   1_455  S
O2702     Zr2738   2.531       .  S
O2703     Zr2737   2.557       .  S
O2703      C2714   1.312       .  A
O2704     Zr2710   2.554       .  S
O2704      C2715   1.314       .  A
O2705      C2716   1.314       .  A
O2706     Zr2740   2.414       .  S
O2706      C2716   1.289       .  A
O2707     Zr3189   2.348       .  S
O2707      C2715   1.273       .  A
O2708      C2714   1.276   1_545  A
O2709     Zr2710   2.289       .  S
O2709      C2713   1.264       .  A
Zr2710     O2712   2.359       .  S
Zr2710     O2718   2.320       .  S
O2711     Zr2737   2.323       .  S
O2711     Zr2740   2.363       .  S
O2712     Zr3189   2.344       .  S
C2713      C3109   1.460       .  S
C2714      C2983   1.551       .  S
C2715      C3070   1.499       .  S
C2716      C2972   1.536       .  S
H2717      O2718   0.965       .  S
O2718     Zr3189   2.359       .  S
O2720     Zr2740   2.324       .  S
O2721     Zr3187   2.500   1_554  S
O2721      C2744   1.302       .  A
O2722     Zr2738   2.503       .  S
O2722      C3195   1.304       .  A
O2723     Zr2739   2.526       .  S
O2723      C2746   1.308       .  A
O2724     Zr2740   2.497       .  S
O2724      C2747   1.302       .  A
O2725      C2748   1.309       .  A
O2726     Zr2739   2.560       .  S
O2728     Zr2741   2.570       .  S
O2728      C2751   1.318       .  A
O2729     Zr2739   2.401       .  S
O2729      C2750   1.285       .  A
O2730      C3201   1.285       .  A
O2731     Zr3187   2.317   1_554  S
O2732     Zr2738   2.358       .  S
O2732      C2749   1.276       .  A
O2733      C2748   1.271   1_545  A
O2734     Zr2737   2.367       .  S
O2734      C2747   1.275       .  A
O2735      C2744   1.281       .  A
O2736     Zr2741   2.416       .  S
Zr2737     O3171   2.500       .  S
Zr2737     O3181   2.317       .  S
Zr2737     O3193   2.345       .  S
Zr2737     O2755   2.359       .  S
Zr2738     O3203   2.328       .  S
Zr2739     O3157   2.348   1_554  S
Zr2739     O3162   2.344   1_554  S
Zr2739     O3168   2.359   1_554  S
Zr2740     O2755   2.356       .  S
Zr2741     O3192   2.343   1_554  S
O2742     Zr3191   2.343       .  S
O2743     Zr3187   2.345   1_554  S
C2744      C2955   1.476       .  S
C2745      O3172   1.304       .  A
C2745      C3025   1.522       .  S
C2746      C3014   1.486       .  S
C2747      C3084   1.498       .  S
C2748      C3000   1.498       .  S
C2749      C3039   1.524       .  S
C2750      C3095   1.519       .  S
C2751      O3180   1.285   1_554  A
C2751      C3056   1.523       .  S
H2752      O2753   0.966       .  S
O2753     Zr3188   2.328   1_554  S
H2754      O3205   0.966   1_554  S
O2755      H3204   0.966       .  S
C2756      C2944   1.603       .  S
C2756      C3011   1.598       .  S
C2756      C3028   1.607       .  S
O2757     Zr2793   2.585       .  S
O2757      C2768   1.321       .  A
O2758     Zr2792   2.538       .  S
O2758      C2769   1.306       .  A
O2759     Zr2765   2.498       .  S
O2759      C2770   1.302       .  A
O2760     Zr2765   2.475       .  S
O2760      C2771   1.296       .  A
O2761     Zr2795   2.339       .  S
O2761      C2771   1.277       .  A
O2762     Zr2794   2.368       .  S
O2762      C2770   1.278       .  A
O2763     Zr2765   2.400       .  S
O2763      C2769   1.286       .  A
O2764     Zr2765   2.360       .  S
O2764      C2768   1.275       .  A
Zr2765     O2766   2.333       .  S
Zr2765     O2767   2.323       .  S
Zr2765     O2775   2.344       .  S
Zr2765     O2773   2.340       .  S
O2766     Zr2792   2.342       .  S
O2766     Zr2795   2.348       .  S
O2767     Zr2793   2.342       .  S
O2767     Zr2794   2.331       .  S
C2768      C3140   1.539       .  S
C2769      C2829   1.522       .  S
C2770      C2913   1.487       .  S
C2771      C2941   1.459       .  S
H2772      O2773   0.966       .  S
O2773     Zr2792   2.345       .  S
O2773     Zr2794   2.339       .  S
H2774      O2775   0.965       .  S
O2775     Zr2793   2.300       .  S
O2775     Zr2795   2.325       .  S
O2776     Zr2792   2.485       .  S
O2776      C2799   1.300       .  A
O2777     Zr2793   2.512       .  S
O2777      C2800   1.307       .  A
O2778     Zr2794   2.536       .  S
O2778      C2801   1.309       .  A
O2779     Zr2795   2.527       .  S
O2779      C2802   1.306       .  A
O2780     Zr2795   2.532       .  S
O2780      C2803   1.309       .  A
O2781     Zr2794   2.524       .  S
O2781      C2804   1.307       .  A
O2782     Zr2796   2.521       .  S
O2782      C2805   1.305       .  A
O2783     Zr2796   2.529       .  S
O2783      C2806   1.305       .  A
O2784     Zr2794   2.295       .  S
O2784      C2805   1.265       .  A
O2785     Zr2795   2.346       .  S
O2785      C2806   1.269       .  A
O2786     Zr2792   2.405       .  S
O2786      C2801   1.285       .  A
O2787     Zr2793   2.323       .  S
O2787      C2804   1.273       .  A
O2788     Zr2793   2.408       .  S
O2788      C2803   1.283       .  A
O2789     Zr2792   2.373       .  S
O2789      C2802   1.263       .  A
O2790     Zr2796   2.412       .  S
O2790      C2799   1.287       .  A
O2791     Zr2796   2.397       .  S
O2791      C2800   1.285       .  A
Zr2792     O2798   2.342       .  S
Zr2792     O2810   2.347       .  S
Zr2793     O2797   2.341       .  S
Zr2793     O2808   2.369       .  S
Zr2794     O2798   2.330       .  S
Zr2794     O2808   2.347       .  S
Zr2795     O2797   2.327       .  S
Zr2795     O2810   2.327       .  S
Zr2796     O2797   2.368       .  S
Zr2796     O2798   2.348       .  S
Zr2796     O2810   2.316       .  S
Zr2796     O2808   2.341       .  S
C2799      C2899   1.485       .  S
C2800      C2843   1.520       .  S
C2801      C2930   1.538       .  S
C2802      C2857   1.498       .  S
C2803      C2885   1.546       .  S
C2804      C2818   1.474       .  S
C2805      C2874   1.485       .  S
C2806      C3123   1.525       .  S
H2807      O2808   0.965       .  S
H2809      O2810   0.961       .  S
C2811      C2815   1.604       .  S
C2811      C3282   1.634       .  S
C2811      C3067   1.591       .  S
C2811      C3081   1.601       .  S
C2812      C2916   1.608       .  S
C2812      C2958   1.603       .  S
C2812      C2969   1.636       .  S
C2813      C2846   1.603       .  S
C2813      C3310   1.591       .  S
C2813      C3042   1.620       .  S
C2813      C3053   1.650       .  S
C2814      C2871   1.601   1_545  S
C2814      C2986   1.629   1_545  S
C2814      C2997   1.600   1_545  S
C2815      C2816   1.456       .  A
C2815      C2820   1.446       .  A
C2816      C2817   1.413       .  A
C2816      C2821   1.450       .  S
C2817      C2818   1.398       .  A
C2817      C2824   1.458       .  S
C2818      C2819   1.402       .  A
C2819      C2820   1.410       .  A
C2819      C2822   1.448       .  S
C2820      C2823   1.450       .  S
C2821      N2828   1.158       .  T
C2822      N2827   1.157       .  T
C2823      N2825   1.158       .  T
C2824      N2826   1.157       .  T
C2829      C2830   1.410       .  A
C2829      C2834   1.409       .  A
C2830      C2831   1.431       .  A
C2830      C2835   1.443       .  S
C2831      C2832   1.445   1_554  A
C2831      C3288   1.435   1_554  S
C2832      C3261   1.634       .  S
C2832      C2833   1.447   1_556  A
C2833      C2834   1.407       .  A
C2833      C2836   1.442       .  S
C2834      C2837   1.452       .  S
C2835      N2842   1.157       .  T
C2836      N2841   1.157       .  T
C2837      N2839   1.156       .  T
C2838      C3281   1.435       .  S
C2838      N2840   1.154       .  T
C2843      C2844   1.406       .  A
C2843      C2848   1.401       .  A
C2844      C2845   1.410       .  A
C2844      C2849   1.441       .  S
C2845      C2846   1.434       .  A
C2845      C2852   1.450       .  S
C2846      C2847   1.458       .  A
C2847      C2848   1.432       .  A
C2847      C2850   1.449       .  S
C2848      C2851   1.446       .  S
C2849      N2856   1.151       .  T
C2850      N2855   1.158       .  T
C2851      N2853   1.156       .  T
C2852      N2854   1.157       .  T
C2857      C2858   1.426       .  A
C2857      C2862   1.399       .  A
C2858      C2859   1.399       .  A
C2858      C2863   1.449       .  S
C2859      C2860   1.410       .  A
C2859      C2866   1.443       .  S
C2860      C3263   1.591   1_554  S
C2860      C2861   1.443       .  A
C2861      C2862   1.411       .  A
C2861      C2864   1.452       .  S
C2862      C2865   1.444       .  S
C2863      N2870   1.155       .  T
C2864      N2869   1.158       .  T
C2865      N2867   1.155       .  T
C2866      N2868   1.156   1_554  T
C2871      C2872   1.414       .  A
C2871      C2876   1.429       .  A
C2872      C2873   1.396       .  A
C2872      C2877   1.446       .  S
C2873      C2874   1.428       .  A
C2873      C2880   1.451       .  S
C2874      C2875   1.405       .  A
C2875      C2876   1.417       .  A
C2875      C2878   1.450       .  S
C2876      C2879   1.441       .  S
C2877      N2884   1.157       .  T
C2878      N2883   1.157       .  T
C2879      N2881   1.155       .  T
C2880      N2882   1.155       .  T
C2885      C2886   1.434       .  A
C2885      C2890   1.418       .  A
C2886      C2887   1.422       .  A
C2886      C2891   1.453       .  S
C2887      C2888   1.438       .  A
C2887      C2894   1.459       .  S
C2888      C2889   1.435       .  A
C2889      C2890   1.429       .  A
C2889      C2892   1.448       .  S
C2890      C2893   1.445       .  S
C2891      N2898   1.157       .  T
C2892      N2897   1.158       .  T
C2893      N2895   1.155       .  T
C2894      N2896   1.158       .  T
C2899      C2900   1.400       .  A
C2899      C2904   1.404       .  A
C2900      C2901   1.419       .  A
C2900      C2905   1.452       .  S
C2901      C2902   1.445       .  A
C2901      C2908   1.448       .  S
C2902      C2903   1.437       .  A
C2903      C2904   1.413       .  A
C2903      C2906   1.444       .  S
C2904      C2907   1.453       .  S
C2905      N2912   1.157       .  T
C2906      N2911   1.157   1_655  T
C2907      N2909   1.157       .  T
C2908      N2910   1.156       .  T
C2913      C2914   1.414       .  A
C2913      C2918   1.398       .  A
C2914      C2915   1.410       .  A
C2914      C2919   1.446       .  S
C2915      C2916   1.424       .  A
C2915      C2922   1.450       .  S
C2916      C2917   1.441       .  A
C2917      C2918   1.407       .  A
C2917      C2920   1.451       .  S
C2918      C2921   1.446       .  S
C2919      N2926   1.156       .  T
C2920      N2925   1.158       .  T
C2921      N2923   1.154       .  T
C2922      N2924   1.157       .  T
C2927      C2928   1.447       .  A
C2927      C2932   1.444       .  A
C2928      C2929   1.412       .  A
C2928      C2933   1.457       .  S
C2929      C2930   1.418       .  A
C2929      C2936   1.452       .  S
C2930      C2931   1.414       .  A
C2931      C2932   1.434       .  A
C2931      C2934   1.443       .  S
C2932      C2935   1.449   1_565  S
C2933      N2940   1.158       .  T
C2934      N2939   1.155       .  T
C2935      N2937   1.158       .  T
C2936      N2938   1.157       .  T
C2941      C2942   1.392       .  A
C2941      C2946   1.390       .  A
C2942      C2943   1.416       .  A
C2942      C2947   1.452       .  S
C2943      C2944   1.463       .  A
C2943      C2950   1.452       .  S
C2944      C2945   1.447       .  A
C2945      C2946   1.403       .  A
C2945      C2948   1.446       .  S
C2946      C2949   1.458       .  S
C2947      N2954   1.157       .  T
C2948      N2953   1.157       .  T
C2949      N2951   1.156       .  T
C2950      N2952   1.157       .  T
C2955      C2956   1.410       .  A
C2955      C2960   1.380       .  A
C2956      C2957   1.422       .  A
C2956      C2961   1.438       .  S
C2957      C2958   1.433       .  A
C2957      C2964   1.446       .  S
C2958      C2959   1.429       .  A
C2959      C2960   1.391       .  A
C2959      C2962   1.450       .  S
C2960      C2963   1.441       .  S
C2962      N2967   1.158       .  T
C2963      N2965   1.155       .  T
C2964      N2966   1.157       .  T
C2969      C2970   1.451       .  A
C2969      C2974   1.446       .  A
C2970      C2971   1.438       .  A
C2970      C2975   1.454       .  S
C2971      C2972   1.411       .  A
C2971      C2978   1.445       .  S
C2972      C2973   1.418       .  A
C2973      C2974   1.421       .  A
C2975      N2982   1.158       .  T
C2976      N2981   1.156       .  T
C2977      N2979   1.158       .  T
C2978      N2980   1.156       .  T
C2983      C2984   1.417       .  A
C2983      C2988   1.436   1_565  A
C2984      C2985   1.438       .  A
C2984      C2989   1.450       .  S
C2985      C2986   1.440       .  A
C2985      C2992   1.441       .  S
C2986      C2987   1.440   1_565  A
C2987      C2988   1.421       .  A
C2987      C2990   1.465       .  S
C2988      C2991   1.456       .  S
C2989      N3446   1.158       .  T
C2990      N2995   1.158       .  T
C2991      N2993   1.158       .  T
C2992      N2994   1.157       .  T
N2996      C3439   1.158       .  T
C2997      C3002   1.455       .  A
C2998      C2999   1.392       .  A
C2998      C3003   1.452       .  S
C2999      C3006   1.444       .  S
C3000      C3001   1.400       .  A
C3001      C3002   1.430       .  A
C3001      C3004   1.448       .  S
C3002      C3005   1.446       .  S
C3003      N3010   1.158       .  T
C3004      N3009   1.156       .  T
C3005      N3007   1.157       .  T
C3006      N3008   1.153       .  T
C3011      C3016   1.457       .  A
C3012      C3013   1.399       .  A
C3012      C3017   1.448       .  S
C3013      C3020   1.448       .  S
C3014      C3015   1.402       .  A
C3015      C3016   1.419       .  A
C3015      C3018   1.454       .  S
C3016      C3019   1.452       .  S
C3017      N3024   1.158       .  T
C3018      N3473   1.157       .  T
C3019      N3021   1.158       .  T
C3020      N3022   1.155       .  T
N3023      C3468   1.157       .  T
C3025      C3026   1.410       .  A
C3025      C3030   1.420       .  A
C3026      C3027   1.423       .  A
C3026      C3481   1.447   1_554  S
C3027      C3028   1.438       .  A
C3027      C3034   1.439       .  S
C3028      C3029   1.440       .  A
C3029      C3030   1.420       .  A
C3031      C3476   1.447       .  S
C3031      N3038   1.155       .  T
C3032      N3037   1.156       .  T
C3033      N3035   1.158       .  T
C3034      N3036   1.156       .  T
C3039      C3040   1.417       .  A
C3039      C3494   1.411       .  A
C3040      C3041   1.409       .  A
C3040      C3045   1.448       .  S
C3041      C3042   1.435       .  A
C3041      C3048   1.456       .  S
C3042      C3493   1.456       .  A
C3043      C3492   1.456   1_554  A
C3043      C3044   1.435       .  A
C3043      C3046   1.455       .  S
C3044      C3489   1.411   1_554  A
C3044      C3047   1.448       .  S
C3045      N3052   1.153       .  T
C3046      N3051   1.158       .  T
C3048      N3050   1.158       .  T
C3053      C3054   1.445       .  A
C3053      C3508   1.439       .  A
C3054      C3055   1.429       .  A
C3054      C3059   1.451       .  S
C3055      C3506   1.407       .  A
C3055      C3062   1.452       .  S
C3056      C3505   1.407   1_554  A
C3056      C3057   1.414       .  A
C3057      C3058   1.432   1_554  A
C3057      C3060   1.442       .  S
C3058      C3503   1.439       .  A
C3058      C3061   1.448       .  S
C3059      N3066   1.159       .  T
C3061      N3063   1.157       .  T
C3062      N3064   1.157       .  T
C3067      C3068   1.433       .  A
C3067      C3072   1.443       .  A
C3068      C3069   1.408       .  A
C3068      C3523   1.458       .  S
C3069      C3070   1.420       .  A
C3069      C3526   1.449       .  S
C3070      C3071   1.402       .  A
C3071      C3072   1.423       .  A
C3071      C3074   1.451       .  S
C3072      C3075   1.443       .  S
C3073      C3518   1.458       .  S
C3073      N3080   1.158   1_556  T
C3074      N3079   1.157       .  T
C3075      N3077   1.156       .  T
C3076      C3519   1.449   1_554  S
C3076      N3078   1.156       .  T
C3081      C3082   1.455       .  A
C3081      C3086   1.428       .  A
C3082      C3083   1.419       .  A
C3082      C3087   1.450       .  S
C3083      C3084   1.398       .  A
C3083      C3090   1.454       .  S
C3084      C3085   1.420       .  A
C3085      C3086   1.409       .  A
C3085      C3088   1.457       .  S
C3086      C3089   1.445       .  S
C3087      N3094   1.158       .  T
C3088      N3543   1.156       .  T
C3089      N3091   1.155       .  T
C3090      N3092   1.157       .  T
N3093      C3538   1.156       .  T
C3095      C3100   1.412       .  A
C3096      C3097   1.430       .  A
C3096      C3101   1.454       .  S
C3097      C3104   1.450       .  S
C3098      C3099   1.445       .  A
C3099      C3100   1.426       .  A
C3099      C3102   1.444       .  S
C3100      C3103   1.449       .  S
C3101      N3108   1.157       .  T
C3102      N3107   1.157       .  T
C3103      N3105   1.158       .  T
C3104      N3106   1.158       .  T
C3109      C3110   1.413       .  A
C3110      C3111   1.422       .  A
C3110      C3115   1.446       .  S
C3111      C3112   1.434       .  A
C3111      C3118   1.445       .  S
C3113      C3114   1.379       .  A
C3113      C3116   1.442       .  S
C3114      C3117   1.455   1_655  S
C3115      N3122   1.155       .  T
C3116      N3121   1.157       .  T
C3117      N3119   1.157       .  T
C3118      N3120   1.157       .  T
C3123      C3124   1.414       .  A
C3123      C3128   1.423       .  A
C3124      C3125   1.439       .  A
C3124      C3129   1.446       .  S
C3125      C3126   1.449       .  A
C3125      C3132   1.452   1_655  S
C3126      C3127   1.434       .  A
C3127      C3128   1.392       .  A
C3127      C3130   1.455       .  S
C3128      C3131   1.461       .  S
C3129      N3136   1.157       .  T
C3130      N3135   1.158       .  T
C3131      N3133   1.157       .  T
C3132      N3134   1.158       .  T
C3137      C3138   1.424       .  A
C3137      C3142   1.463       .  A
C3138      C3139   1.422       .  A
C3138      C3143   1.452       .  S
C3139      C3140   1.431       .  A
C3139      C3146   1.451       .  S
C3140      C3141   1.404       .  A
C3141      C3142   1.438       .  A
C3141      C3144   1.453       .  S
C3142      C3145   1.450       .  S
C3143      N3150   1.156       .  T
C3144      N3149   1.157       .  T
C3145      N3147   1.158       .  T
C3146      N3148   1.155       .  T
C3151      C3576   1.595   1_455  S
O3152     Zr3188   2.531       .  S
O3153     Zr3187   2.557       .  S
O3153      C3164   1.312       .  A
O3154     Zr3160   2.554       .  S
O3154      C3165   1.314       .  A
O3155      C3166   1.314       .  A
O3156     Zr3190   2.414       .  S
O3156      C3166   1.289       .  A
O3157      C3165   1.273       .  A
O3158      C3164   1.276   1_545  A
O3159     Zr3160   2.289       .  S
O3159      C3163   1.264       .  A
Zr3160     O3162   2.359       .  S
Zr3160     O3168   2.320       .  S
O3161     Zr3187   2.323       .  S
O3161     Zr3190   2.363       .  S
C3163      C3559   1.460       .  S
C3164      C3433   1.551       .  S
C3165      C3520   1.499       .  S
C3166      C3422   1.536       .  S
H3167      O3168   0.965       .  S
O3170     Zr3190   2.324       .  S
O3171      C3194   1.302       .  A
O3172     Zr3188   2.503   1_554  S
O3173     Zr3189   2.526       .  S
O3173      C3196   1.308       .  A
O3174     Zr3190   2.497       .  S
O3174      C3197   1.302       .  A
O3175      C3198   1.309       .  A
O3176     Zr3189   2.560       .  S
O3178     Zr3191   2.569       .  S
O3178      C3201   1.318       .  A
O3179     Zr3189   2.401       .  S
O3179      C3200   1.285       .  A
O3182     Zr3188   2.358       .  S
O3182      C3199   1.276       .  A
O3183      C3198   1.271   1_545  A
O3184     Zr3187   2.367       .  S
O3184      C3197   1.275       .  A
O3185      C3194   1.281       .  A
O3186     Zr3191   2.416       .  S
Zr3187     O3205   2.359       .  S
Zr3190     O3205   2.356       .  S
C3194      C3405   1.476       .  S
C3195      C3475   1.522       .  S
C3196      C3464   1.486       .  S
C3197      C3534   1.498       .  S
C3198      C3450   1.498       .  S
C3199      C3489   1.524       .  S
C3200      C3545   1.519       .  S
C3201      C3506   1.523       .  S
H3202      O3203   0.966       .  S
C3206      C3394   1.603       .  S
C3206      C3461   1.598       .  S
C3206      C3478   1.607       .  S
O3207     Zr3243   2.585       .  S
O3207      C3218   1.321       .  A
O3208     Zr3242   2.538       .  S
O3208      C3219   1.306       .  A
O3209     Zr3215   2.498       .  S
O3209      C3220   1.302       .  A
O3210     Zr3215   2.475       .  S
O3210      C3221   1.296       .  A
O3211     Zr3245   2.339       .  S
O3211      C3221   1.277       .  A
O3212     Zr3244   2.368       .  S
O3212      C3220   1.278       .  A
O3213     Zr3215   2.400       .  S
O3213      C3219   1.286       .  A
O3214     Zr3215   2.360       .  S
O3214      C3218   1.275       .  A
Zr3215     O3216   2.333       .  S
Zr3215     O3217   2.323       .  S
Zr3215     O3225   2.344       .  S
Zr3215     O3223   2.340       .  S
O3216     Zr3242   2.342       .  S
O3216     Zr3245   2.348       .  S
O3217     Zr3243   2.342       .  S
O3217     Zr3244   2.331       .  S
C3218      C3590   1.539       .  S
C3219      C3279   1.522       .  S
C3220      C3363   1.487       .  S
C3221      C3391   1.459       .  S
H3222      O3223   0.966       .  S
O3223     Zr3242   2.345       .  S
O3223     Zr3244   2.339       .  S
H3224      O3225   0.965       .  S
O3225     Zr3243   2.300       .  S
O3225     Zr3245   2.325       .  S
O3226     Zr3242   2.485       .  S
O3226      C3249   1.300       .  A
O3227     Zr3243   2.512       .  S
O3227      C3250   1.307       .  A
O3228     Zr3244   2.536       .  S
O3228      C3251   1.309       .  A
O3229     Zr3245   2.527       .  S
O3229      C3252   1.306       .  A
O3230     Zr3245   2.532       .  S
O3230      C3253   1.309       .  A
O3231     Zr3244   2.524       .  S
O3231      C3254   1.307       .  A
O3232     Zr3246   2.521       .  S
O3232      C3255   1.305       .  A
O3233     Zr3246   2.529       .  S
O3233      C3256   1.305       .  A
O3234     Zr3244   2.295       .  S
O3234      C3255   1.265       .  A
O3235     Zr3245   2.346       .  S
O3235      C3256   1.269       .  A
O3236     Zr3242   2.405       .  S
O3236      C3251   1.285       .  A
O3237     Zr3243   2.323       .  S
O3237      C3254   1.273       .  A
O3238     Zr3243   2.408       .  S
O3238      C3253   1.283       .  A
O3239     Zr3242   2.373       .  S
O3239      C3252   1.263       .  A
O3240     Zr3246   2.412       .  S
O3240      C3249   1.287       .  A
O3241     Zr3246   2.397       .  S
O3241      C3250   1.285       .  A
Zr3242     O3248   2.342       .  S
Zr3242     O3260   2.347       .  S
Zr3243     O3247   2.341       .  S
Zr3243     O3258   2.369       .  S
Zr3244     O3248   2.330       .  S
Zr3244     O3258   2.347       .  S
Zr3245     O3247   2.327       .  S
Zr3245     O3260   2.327       .  S
Zr3246     O3247   2.368       .  S
Zr3246     O3248   2.348       .  S
Zr3246     O3260   2.316       .  S
Zr3246     O3258   2.341       .  S
C3249      C3349   1.485       .  S
C3250      C3293   1.520       .  S
C3251      C3380   1.538       .  S
C3252      C3307   1.498       .  S
C3253      C3335   1.546       .  S
C3254      C3268   1.474       .  S
C3255      C3324   1.485       .  S
C3256      C3573   1.525       .  S
H3257      O3258   0.965       .  S
H3259      O3260   0.961       .  S
C3261      C3265   1.604       .  S
C3261      C3517   1.591       .  S
C3261      C3531   1.601       .  S
C3262      C3366   1.608       .  S
C3262      C3408   1.603       .  S
C3262      C3419   1.636       .  S
C3263      C3296   1.603       .  S
C3263      C3492   1.620       .  S
C3263      C3503   1.650       .  S
C3264      C3321   1.601   1_545  S
C3264      C3436   1.629   1_545  S
C3264      C3447   1.600   1_545  S
C3265      C3266   1.456       .  A
C3265      C3270   1.446       .  A
C3266      C3267   1.413       .  A
C3266      C3271   1.450       .  S
C3267      C3268   1.398       .  A
C3267      C3274   1.458       .  S
C3268      C3269   1.402       .  A
C3269      C3270   1.410       .  A
C3269      C3272   1.448       .  S
C3270      C3273   1.450       .  S
C3271      N3278   1.158       .  T
C3272      N3277   1.157       .  T
C3273      N3275   1.158       .  T
C3274      N3276   1.157       .  T
C3279      C3280   1.410       .  A
C3279      C3284   1.409       .  A
C3280      C3281   1.431       .  A
C3280      C3285   1.443       .  S
C3281      C3282   1.445       .  A
C3282      C3283   1.447       .  A
C3283      C3284   1.407       .  A
C3283      C3286   1.442       .  S
C3284      C3287   1.452       .  S
C3285      N3292   1.157       .  T
C3286      N3291   1.157       .  T
C3287      N3289   1.156       .  T
C3288      N3290   1.154       .  T
C3293      C3294   1.406       .  A
C3293      C3298   1.401       .  A
C3294      C3295   1.410       .  A
C3294      C3299   1.441       .  S
C3295      C3296   1.434       .  A
C3295      C3302   1.450       .  S
C3296      C3297   1.458       .  A
C3297      C3298   1.432       .  A
C3297      C3300   1.449       .  S
C3298      C3301   1.446       .  S
C3299      N3306   1.151       .  T
C3300      N3305   1.158       .  T
C3301      N3303   1.156       .  T
C3302      N3304   1.157       .  T
C3307      C3308   1.426       .  A
C3307      C3312   1.399       .  A
C3308      C3309   1.399       .  A
C3308      C3313   1.449       .  S
C3309      C3310   1.410       .  A
C3309      C3316   1.443       .  S
C3310      C3311   1.443       .  A
C3311      C3312   1.411       .  A
C3311      C3314   1.452       .  S
C3312      C3315   1.444       .  S
C3313      N3320   1.155       .  T
C3314      N3319   1.158       .  T
C3315      N3317   1.155       .  T
C3316      N3318   1.156       .  T
C3321      C3322   1.414       .  A
C3321      C3326   1.429       .  A
C3322      C3323   1.396       .  A
C3322      C3327   1.446       .  S
C3323      C3324   1.428       .  A
C3323      C3330   1.451       .  S
C3324      C3325   1.405       .  A
C3325      C3326   1.417       .  A
C3325      C3328   1.450       .  S
C3326      C3329   1.441       .  S
C3327      N3334   1.157       .  T
C3328      N3333   1.157       .  T
C3329      N3331   1.155       .  T
C3330      N3332   1.155       .  T
C3335      C3336   1.434       .  A
C3335      C3340   1.418       .  A
C3336      C3337   1.422       .  A
C3336      C3341   1.453       .  S
C3337      C3338   1.438       .  A
C3337      C3344   1.459       .  S
C3338      C3339   1.435       .  A
C3339      C3340   1.429       .  A
C3339      C3342   1.448       .  S
C3340      C3343   1.445       .  S
C3341      N3348   1.157       .  T
C3342      N3347   1.158       .  T
C3343      N3345   1.155       .  T
C3344      N3346   1.158       .  T
C3349      C3350   1.400       .  A
C3349      C3354   1.404       .  A
C3350      C3351   1.419       .  A
C3350      C3355   1.452       .  S
C3351      C3352   1.445       .  A
C3351      C3358   1.448       .  S
C3352      C3353   1.437       .  A
C3353      C3354   1.413       .  A
C3353      C3356   1.444       .  S
C3354      C3357   1.453       .  S
C3355      N3362   1.157       .  T
C3356      N3361   1.157   1_655  T
C3357      N3359   1.157       .  T
C3358      N3360   1.156       .  T
C3363      C3364   1.414       .  A
C3363      C3368   1.398       .  A
C3364      C3365   1.410       .  A
C3364      C3369   1.446       .  S
C3365      C3366   1.424       .  A
C3365      C3372   1.450       .  S
C3366      C3367   1.441       .  A
C3367      C3368   1.407       .  A
C3367      C3370   1.451       .  S
C3368      C3371   1.446       .  S
C3369      N3376   1.156       .  T
C3370      N3375   1.158       .  T
C3371      N3373   1.154       .  T
C3372      N3374   1.157       .  T
C3377      C3378   1.447       .  A
C3377      C3382   1.444       .  A
C3378      C3379   1.412       .  A
C3378      C3383   1.457       .  S
C3379      C3380   1.418       .  A
C3379      C3386   1.452       .  S
C3380      C3381   1.414       .  A
C3381      C3382   1.434       .  A
C3381      C3384   1.443       .  S
C3382      C3385   1.449   1_565  S
C3383      N3390   1.158       .  T
C3384      N3389   1.155       .  T
C3385      N3387   1.158       .  T
C3386      N3388   1.157       .  T
C3391      C3392   1.392       .  A
C3391      C3396   1.390       .  A
C3392      C3393   1.416       .  A
C3392      C3397   1.452       .  S
C3393      C3394   1.463       .  A
C3393      C3400   1.452       .  S
C3394      C3395   1.447       .  A
C3395      C3396   1.403       .  A
C3395      C3398   1.446       .  S
C3396      C3399   1.458       .  S
C3397      N3404   1.157       .  T
C3398      N3403   1.157       .  T
C3399      N3401   1.156       .  T
C3400      N3402   1.157       .  T
C3405      C3406   1.410       .  A
C3405      C3410   1.380       .  A
C3406      C3407   1.422       .  A
C3406      C3411   1.438       .  S
C3407      C3408   1.433       .  A
C3407      C3414   1.446       .  S
C3408      C3409   1.429       .  A
C3409      C3410   1.391       .  A
C3409      C3412   1.450       .  S
C3410      C3413   1.441       .  S
C3412      N3417   1.158       .  T
C3413      N3415   1.155       .  T
C3414      N3416   1.157       .  T
C3419      C3420   1.451       .  A
C3419      C3424   1.446       .  A
C3420      C3421   1.438       .  A
C3420      C3425   1.454       .  S
C3421      C3422   1.411       .  A
C3421      C3428   1.445       .  S
C3422      C3423   1.418       .  A
C3423      C3424   1.421       .  A
C3425      N3432   1.158       .  T
C3426      N3431   1.156       .  T
C3427      N3429   1.158       .  T
C3428      N3430   1.156       .  T
C3433      C3434   1.417       .  A
C3433      C3438   1.436   1_565  A
C3434      C3435   1.438       .  A
C3434      C3439   1.450       .  S
C3435      C3436   1.440       .  A
C3435      C3442   1.441       .  S
C3436      C3437   1.440   1_565  A
C3437      C3438   1.421       .  A
C3437      C3440   1.465       .  S
C3438      C3441   1.456       .  S
C3440      N3445   1.158       .  T
C3441      N3443   1.158       .  T
C3442      N3444   1.157       .  T
C3447      C3452   1.455       .  A
C3448      C3449   1.392       .  A
C3448      C3453   1.452       .  S
C3449      C3456   1.444       .  S
C3450      C3451   1.400       .  A
C3451      C3452   1.430       .  A
C3451      C3454   1.448       .  S
C3452      C3455   1.446       .  S
C3453      N3460   1.158       .  T
C3454      N3459   1.156       .  T
C3455      N3457   1.157       .  T
C3456      N3458   1.153       .  T
C3461      C3466   1.457       .  A
C3462      C3463   1.399       .  A
C3462      C3467   1.448       .  S
C3463      C3470   1.448       .  S
C3464      C3465   1.402       .  A
C3465      C3466   1.419       .  A
C3465      C3468   1.454       .  S
C3466      C3469   1.452       .  S
C3467      N3474   1.158       .  T
C3469      N3471   1.158       .  T
C3470      N3472   1.155       .  T
C3475      C3476   1.410       .  A
C3475      C3480   1.420       .  A
C3476      C3477   1.423       .  A
C3477      C3478   1.438       .  A
C3477      C3484   1.439       .  S
C3478      C3479   1.440       .  A
C3479      C3480   1.420       .  A
C3481      N3488   1.155       .  T
C3482      N3487   1.156       .  T
C3483      N3485   1.158       .  T
C3484      N3486   1.156       .  T
C3489      C3490   1.417       .  A
C3490      C3491   1.409       .  A
C3490      C3495   1.448       .  S
C3491      C3492   1.435       .  A
C3491      C3498   1.456       .  S
C3493      C3494   1.435       .  A
C3493      C3496   1.455       .  S
C3494      C3497   1.448       .  S
C3495      N3502   1.153       .  T
C3496      N3501   1.158       .  T
C3498      N3500   1.158       .  T
C3503      C3504   1.445       .  A
C3504      C3505   1.429       .  A
C3504      C3509   1.451       .  S
C3505      C3512   1.452       .  S
C3506      C3507   1.414       .  A
C3507      C3508   1.432       .  A
C3507      C3510   1.442       .  S
C3508      C3511   1.448       .  S
C3509      N3516   1.159       .  T
C3511      N3513   1.157       .  T
C3512      N3514   1.157       .  T
C3517      C3518   1.433       .  A
C3517      C3522   1.443       .  A
C3518      C3519   1.408       .  A
C3519      C3520   1.420       .  A
C3520      C3521   1.402       .  A
C3521      C3522   1.423       .  A
C3521      C3524   1.451       .  S
C3522      C3525   1.443       .  S
C3523      N3530   1.158       .  T
C3524      N3529   1.157       .  T
C3525      N3527   1.156       .  T
C3526      N3528   1.156       .  T
C3531      C3532   1.455       .  A
C3531      C3536   1.428       .  A
C3532      C3533   1.419       .  A
C3532      C3537   1.450       .  S
C3533      C3534   1.398       .  A
C3533      C3540   1.454       .  S
C3534      C3535   1.420       .  A
C3535      C3536   1.409       .  A
C3535      C3538   1.457   1_556  S
C3536      C3539   1.445   1_556  S
C3537      N3544   1.158       .  T
C3539      N3541   1.155       .  T
C3540      N3542   1.157       .  T
C3545      C3550   1.412       .  A
C3546      C3547   1.430       .  A
C3546      C3551   1.454       .  S
C3547      C3554   1.450       .  S
C3548      C3549   1.445       .  A
C3549      C3550   1.426       .  A
C3549      C3552   1.444       .  S
C3550      C3553   1.449       .  S
C3551      N3558   1.157       .  T
C3552      N3557   1.157       .  T
C3553      N3555   1.158       .  T
C3554      N3556   1.158       .  T
C3559      C3560   1.413       .  A
C3560      C3561   1.422       .  A
C3560      C3565   1.446       .  S
C3561      C3562   1.434       .  A
C3561      C3568   1.445       .  S
C3563      C3564   1.379       .  A
C3563      C3566   1.442       .  S
C3564      C3567   1.455   1_655  S
C3565      N3572   1.155       .  T
C3566      N3571   1.157       .  T
C3567      N3569   1.157       .  T
C3568      N3570   1.157       .  T
C3573      C3574   1.414       .  A
C3573      C3578   1.423       .  A
C3574      C3575   1.439       .  A
C3574      C3579   1.446       .  S
C3575      C3576   1.449       .  A
C3575      C3582   1.452   1_655  S
C3576      C3577   1.434       .  A
C3577      C3578   1.392       .  A
C3577      C3580   1.455       .  S
C3578      C3581   1.461       .  S
C3579      N3586   1.157       .  T
C3580      N3585   1.158       .  T
C3581      N3583   1.157       .  T
C3582      N3584   1.158       .  T
C3587      C3588   1.424       .  A
C3587      C3592   1.463       .  A
C3588      C3589   1.422       .  A
C3588      C3593   1.452       .  S
C3589      C3590   1.431       .  A
C3589      C3596   1.451       .  S
C3590      C3591   1.404       .  A
C3591      C3592   1.438       .  A
C3591      C3594   1.453       .  S
C3592      C3595   1.450       .  S
C3593      N3600   1.156       .  T
C3594      N3599   1.157       .  T
C3595      N3597   1.158       .  T
C3596      N3598   1.155       .  T
