geometry optimzed in LAMMPS
_audit_creation_date              2020-11-30 
_audit_creation_method            'lammps2cif' 
_symmetry_space_group_name_H-M    'P1' 
_symmetry_Int_Tables_number       1 
_symmetry_cell_setting            triclinic 
loop_ 
_symmetry_equiv_pos_as_xyz 
  x,y,z 
_cell_length_a                    32.17958113 
_cell_length_b                    32.30319579490728 
_cell_length_c                    63.93948348384794 
_cell_angle_alpha                 89.98893162325906 
_cell_angle_beta                  89.99975762452873 
_cell_angle_gamma                 90.2191921630007 
loop_ 
_atom_site_label 
_atom_site_type_symbol 
_atom_site_fract_x 
_atom_site_fract_y 
_atom_site_fract_z 
_atom_site_charge 
O1          O  0.72625855  0.68724054  0.77161704    -0.71300
O2          O  0.73333377  0.77089346  0.72534651    -0.72200
O3          O  0.72488239  0.68303090  0.72726523    -0.60900
O4          O  0.73477173  0.77410814  0.76969479    -0.69300
O5          O  0.80345955  0.76825235  0.76904667    -0.68800
O6          O  0.79354558  0.67686012  0.72645459    -0.60100
O7          O  0.80193825  0.76440264  0.72454593    -0.72600
O8          O  0.79484236  0.68024305  0.77120358    -0.71400
Cu9        Cu  0.72747497  0.72899264  0.74844830     1.04600
Cu10       Cu  0.80088909  0.72215981  0.74779362     1.04300
C11         C  0.75928406  0.67085814  0.77887194     0.94900
C12         C  0.76866451  0.78118113  0.71775719     0.94100
C13         C  0.75752830  0.66568914  0.72011067     0.86200
C14         C  0.77065485  0.78541832  0.77615027     0.92500
O15         O  0.26615656  0.77734910  0.77110788    -0.71300
O16         O  0.27908323  0.68951801  0.72730094    -0.72200
O17         O  0.26707272  0.77680845  0.72662169    -0.60900
O18         O  0.27813816  0.69084038  0.77171636    -0.69300
O19         O  0.20991810  0.68054109  0.77152696    -0.68800
O20         O  0.19878806  0.76708660  0.72611732    -0.60100
O21         O  0.21071920  0.68012051  0.72674842    -0.72600
O22         O  0.19774936  0.76837197  0.77078148    -0.71400
Cu23       Cu  0.27492144  0.73395344  0.74917892     1.04600
Cu24       Cu  0.20185234  0.72367363  0.74879815     1.04300
C25         C  0.23005614  0.78657231  0.77797034     0.94900
C26         C  0.24700182  0.67116981  0.72000312     0.94100
C27         C  0.23123650  0.78549532  0.71920895     0.86200
C28         C  0.24601113  0.67225613  0.77880927     0.92500
O29         O  0.95556115  0.48411105  0.46869733    -0.71300
O30         O  0.04175000  0.49003647  0.51395972    -0.72200
O31         O  0.95372413  0.48186211  0.51343934    -0.60900
O32         O  0.04326716  0.49322465  0.46969769    -0.69300
O33         O  0.03701916  0.56159673  0.47098068    -0.68800
O34         O  0.94752064  0.55028363  0.51396865    -0.60100
O35         O  0.03496432  0.55832597  0.51533322    -0.72600
O36         O  0.94889172  0.55244462  0.46925336    -0.71400
Cu37       Cu  0.99868288  0.48492065  0.49139179     1.04600
Cu38       Cu  0.99175634  0.55803791  0.49238107     1.04300
C39         C  0.93899940  0.51710385  0.46161116     0.94900
C40         C  0.05201776  0.52499026  0.52179432     0.94100
C41         C  0.93714322  0.51466702  0.52087006     0.86200
C42         C  0.05456396  0.52933708  0.46369041     0.92500
N43         N  0.81532543  0.45823414  0.58706744    -0.25600
N44         N  0.83054557  0.49436753  0.59314447    -0.33500
C45         C  0.85974114  0.50670933  0.57945582     0.02700
C46         C  0.86327636  0.47681500  0.56403872     0.08800
C47         C  0.83494469  0.44636194  0.56946194    -0.04300
H48         H  0.87729317  0.53520055  0.58080455     0.09400
H49         H  0.82830799  0.41816236  0.56094810     0.10600
Cu50       Cu  0.81184474  0.52559774  0.61985035     0.44200
Cu51       Cu  0.76623561  0.42864451  0.60208891     0.42000
Cu52       Cu  0.72342340  0.48352482  0.64686325     0.43900
N53         N  0.78905156  0.55015883  0.64750997    -0.33000
N54         N  0.75600760  0.53517564  0.65722112    -0.27200
C55         C  0.74878615  0.55788247  0.67447039    -0.03300
C56         C  0.77896092  0.58850796  0.67572095     0.08900
C57         C  0.80406299  0.58252045  0.65844177     0.02700
H58         H  0.72383776  0.55199207  0.68542718     0.10300
H59         H  0.83106941  0.60054862  0.65404776     0.09400
N60         N  0.69709103  0.43051495  0.63404898    -0.34400
N61         N  0.71283541  0.41023163  0.61791924    -0.26600
C62         C  0.68773678  0.37807968  0.61326344    -0.01900
C63         C  0.65484499  0.37831063  0.62712937     0.06700
C64         C  0.66163538  0.41179727  0.64008510     0.04800
H65         H  0.69271786  0.35664866  0.60051240     0.09900
H66         H  0.64201251  0.42219861  0.65276735     0.08800
N67         N  0.25145156  0.54841956  0.65322481    -0.25600
N68         N  0.21619443  0.56154344  0.64500441    -0.33500
C69         C  0.20018784  0.59115126  0.65736409     0.02700
C70         C  0.22685270  0.59731206  0.67402644     0.08800
C71         C  0.25908333  0.56964682  0.67092751    -0.04300
H72         H  0.17142267  0.60730884  0.65432752     0.09400
H73         H  0.28573977  0.56472102  0.68091294     0.10600
Cu74       Cu  0.19191636  0.53900143  0.61718398     0.44200
Cu75       Cu  0.28619705  0.50080686  0.64043691     0.42000
Cu76       Cu  0.24423017  0.45118139  0.59379178     0.43900
N77         N  0.17351542  0.51184947  0.58927336    -0.33000
N78         N  0.19188027  0.47922548  0.58093104    -0.27200
C79         C  0.17155049  0.46861574  0.56331113    -0.03300
C80         C  0.13922317  0.49613061  0.56030351     0.08900
C81         C  0.14138856  0.52312175  0.57709392     0.02700
H82         H  0.17976028  0.44280251  0.55337242     0.10300
H83         H  0.12071527  0.54856372  0.58051047     0.09400
N84         N  0.29703407  0.43081797  0.60956925    -0.34400
N85         N  0.31236489  0.44928096  0.62638287    -0.26600
C86         C  0.34581303  0.42823175  0.63307943    -0.01900
C87         C  0.35177092  0.39507229  0.61986373     0.06700
C88         C  0.32045171  0.39746655  0.60513672     0.04800
H89         H  0.36393457  0.43611596  0.64677800     0.09900
H90         H  0.31470897  0.37627207  0.59234683     0.08800
O91         O  0.95035299  0.96485308  0.48546844    -0.71300
O92         O  0.04459555  0.97577494  0.52632307    -0.72200
O93         O  0.95845258  0.95919549  0.52961881    -0.60900
O94         O  0.03715955  0.98155293  0.48197891    -0.69300
O95         O  0.02504574  0.04894916  0.48441273    -0.68800
O96         O  0.94620091  0.02656167  0.53216795    -0.60100
O97         O  0.03323676  0.04332146  0.52880166    -0.72600
O98         O  0.93883645  0.03237639  0.48795332    -0.71400
Cu99       Cu  0.99812284  0.96804802  0.50573843     1.04600
Cu100      Cu  0.98542705  0.04017844  0.50846133     1.04300
C101        C  0.92984808  0.99697183  0.48019895     0.94900
C102        C  0.05353001  0.01109859  0.53416635     0.94100
C103        C  0.93967949  0.98937586  0.53831456     0.86200
C104        C  0.04337807  0.01860188  0.47558496     0.92500
N105        N  0.18690957  0.00425817  0.59618065    -0.25600
N106        N  0.17472616  0.96747654  0.60298379    -0.33500
C107        C  0.14265353  0.95436060  0.59120706     0.02700
C108        C  0.13390705  0.98439217  0.57646844     0.08800
C109        C  0.16258762  0.01567276  0.58005364    -0.04300
H110        H  0.12672079  0.92508223  0.59327379     0.09400
H111        H  0.16618438  0.04419556  0.57136576     0.10600
Cu112      Cu  0.20160874  0.93643465  0.62810337     0.44200
Cu113      Cu  0.23725069  0.03647540  0.60841765     0.42000
Cu114      Cu  0.29298416  0.98464239  0.65001585     0.43900
N115        N  0.23366338  0.91238373  0.65364258    -0.33000
N116        N  0.26773689  0.92972039  0.66125575    -0.27200
C117        C  0.28139404  0.90712131  0.67751077    -0.03300
C118        C  0.25445573  0.87422089  0.68050610     0.08900
C119        C  0.22449697  0.87844495  0.66504576     0.02700
H120        H  0.30860269  0.91453729  0.68673847     0.10300
H121        H  0.19813479  0.85834596  0.66218769     0.09400
N122        N  0.31072374  0.04141435  0.63758587    -0.34400
N123        N  0.29022955  0.06049045  0.62247413    -0.26600
C124        C  0.30978042  0.09627493  0.61790550    -0.01900
C125        C  0.34399834  0.09974484  0.63080110     0.06700
C126        C  0.34382180  0.06458444  0.64305950     0.04800
H127        H  0.30002083  0.11786245  0.60594386     0.09900
H128        H  0.36623030  0.05622704  0.65494009     0.08800
N129        N  0.72438415  0.92709108  0.66272484    -0.25600
N130        N  0.75931663  0.91263008  0.65461591    -0.33500
C131        C  0.77061155  0.87853254  0.66536002     0.02700
C132        C  0.74122949  0.87121624  0.68082581     0.08800
C133        C  0.71246850  0.90248545  0.67859495    -0.04300
H134        H  0.79794808  0.86032464  0.66199975     0.09400
H135        H  0.68494744  0.90729281  0.68800552     0.10600
Cu136      Cu  0.79011906  0.93953669  0.62913913     0.44200
Cu137      Cu  0.69377454  0.98015823  0.65292344     0.42000
Cu138      Cu  0.74226454  0.03410308  0.61103680     0.43900
N139        N  0.81333775  0.97487126  0.60426945    -0.33000
N140        N  0.79564265  0.00973083  0.59818226    -0.27200
C141        C  0.81780631  0.02647064  0.58252238    -0.03300
C142        C  0.85102734  0.00101663  0.57828441     0.08900
C143        C  0.84733845  0.96838033  0.59235264     0.02700
H144        H  0.81018569  0.05520465  0.57473867     0.10300
H145        H  0.86805951  0.94231369  0.59406097     0.09400
N146        N  0.68887228  0.05494263  0.62537418    -0.34400
N147        N  0.67055297  0.03514454  0.64095493    -0.26600
C148        C  0.63678036  0.05663186  0.64693736    -0.01900
C149        C  0.63409853  0.09142358  0.63443376     0.06700
C150        C  0.66743186  0.08945864  0.62095270     0.04800
H151        H  0.61590059  0.04761344  0.65940635     0.09900
H152        H  0.67558100  0.11142824  0.60883709     0.08800
O153        O  0.54846118  0.52503545  0.97124870    -0.71300
O154        O  0.45922984  0.54790410  0.01412021    -0.72200
O155        O  0.54824420  0.54738158  0.01440543    -0.60900
O156        O  0.45979163  0.52532410  0.97088261    -0.69300
O157        O  0.45892741  0.45906848  0.98002266    -0.68800
O158        O  0.54721138  0.48091197  0.02312063    -0.60100
O159        O  0.45915403  0.48160283  0.02315121    -0.72600
O160        O  0.54781873  0.45863877  0.98009946    -0.71400
Cu161      Cu  0.50393035  0.53874460  0.99234801     1.04600
Cu162      Cu  0.50322341  0.46777413  0.00186748     1.04300
C163        C  0.56237530  0.48825647  0.96900248     0.94900
C164        C  0.44537343  0.51840320  0.02552066     0.94100
C165        C  0.56162744  0.51750532  0.02562993     0.86200
C166        C  0.44538795  0.48861067  0.96865118     0.92500
N167        N  0.69934275  0.47564241  0.90858263    -0.25600
N168        N  0.68979769  0.51136538  0.89970089    -0.33500
C169        C  0.65667806  0.52760813  0.90952025     0.02700
C170        C  0.64440702  0.50089664  0.92526711     0.08800
C171        C  0.67219732  0.46816373  0.92423286    -0.04300
H172        H  0.64264958  0.55696516  0.90555444     0.09400
H173        H  0.67329476  0.44136201  0.93435403     0.10600
Cu174      Cu  0.72196078  0.53714433  0.87462378     0.44200
Cu175      Cu  0.75039079  0.43996897  0.89951938     0.42000
Cu176      Cu  0.81393683  0.48410146  0.85768292     0.43900
N177        N  0.75776638  0.55643257  0.84932566    -0.33000
N178        N  0.79206839  0.53742515  0.84334876    -0.27200
C179        C  0.80780225  0.55699081  0.82650118    -0.03300
C180        C  0.78188942  0.58956716  0.82144989     0.08900
C181        C  0.75051663  0.58836134  0.83632312     0.02700
H182        H  0.83549226  0.54755566  0.81821875     0.10300
H183        H  0.72427546  0.60903352  0.83764970     0.09400
N184        N  0.82789264  0.42933763  0.87314527    -0.34400
N185        N  0.80490559  0.41288091  0.88820600    -0.26600
C186        C  0.82292398  0.37745037  0.89464531    -0.01900
C187        C  0.85874452  0.37160609  0.88306392     0.06700
C188        C  0.86094649  0.40492492  0.86961555     0.04800
H189        H  0.81090771  0.35757759  0.90686837     0.09900
H190        H  0.88481831  0.41106083  0.85809928     0.08800
N191        N  0.21987678  0.53213063  0.84094031    -0.25600
N192        N  0.25473421  0.55101370  0.84639865    -0.33500
C193        C  0.26105151  0.58357144  0.83362950     0.02700
C194        C  0.22847033  0.58540535  0.81943672     0.08800
C195        C  0.20290677  0.55239122  0.82463642    -0.04300
H196        H  0.28725933  0.60450675  0.83480619     0.09400
H197        H  0.17425160  0.54349792  0.81698292     0.10600
Cu198      Cu  0.29163696  0.53169386  0.87124966     0.44200
Cu199      Cu  0.19810814  0.47896019  0.85580026     0.42000
Cu200      Cu  0.26151431  0.43609301  0.89777246     0.43900
N201        N  0.32298429  0.50736782  0.89690305    -0.33000
N202        N  0.31266704  0.47237561  0.90637394    -0.27200
C203        C  0.33882011  0.46619923  0.92254108    -0.03300
C204        C  0.36677889  0.49900980  0.92332657     0.08900
C205        C  0.35567969  0.52441604  0.90685983     0.02700
H206        H  0.33676865  0.44031866  0.93322949     0.10300
H207        H  0.37003173  0.55355545  0.90257620     0.09400
N208        N  0.20629325  0.40896585  0.88717003    -0.34400
N209        N  0.18329392  0.42503999  0.87205593    -0.26600
C210        C  0.14951995  0.40104040  0.86912548    -0.01900
C211        C  0.15124105  0.36839099  0.88300697     0.06700
C212        C  0.18758285  0.37419844  0.89422917     0.04800
H213        H  0.12541801  0.40702759  0.85772321     0.09900
H214        H  0.19944235  0.35480169  0.90665104     0.08800
O215        O  0.80750149  0.30730198  0.27513971    -0.71300
O216        O  0.81069179  0.22128118  0.23005294    -0.72200
O217        O  0.81502628  0.30988981  0.23070153    -0.60900
O218        O  0.80170276  0.21955455  0.27420004    -0.69300
O219        O  0.73324824  0.22341705  0.27038626    -0.68800
O220        O  0.74640693  0.31264861  0.22772882    -0.60100
O221        O  0.74221109  0.22493974  0.22641816    -0.72600
O222        O  0.73895112  0.31158682  0.27212769    -0.71400
Cu223      Cu  0.81115695  0.26444613  0.25261459     1.04600
Cu224      Cu  0.73785134  0.26836362  0.24906720     1.04300
C225        C  0.77298280  0.32293967  0.28085075     0.94900
C226        C  0.77716769  0.20909373  0.22130385     0.94100
C227        C  0.78245279  0.32528573  0.22229348     0.86200
C228        C  0.76504173  0.20714632  0.27892034     0.92500
O229        O  0.54768474  0.94899961  0.02282036    -0.71300
O230        O  0.45910081  0.95839585  0.97854293    -0.72200
O231        O  0.54701752  0.95717379  0.97843398    -0.60900
O232        O  0.45887049  0.95004298  0.02295778    -0.69300
O233        O  0.46037741  0.01840634  0.02629935    -0.68800
O234        O  0.54839440  0.02554681  0.98182443    -0.60100
O235        O  0.45992942  0.02675726  0.98203765    -0.72600
O236        O  0.54833897  0.01738442  0.02607378    -0.71400
Cu237      Cu  0.50311193  0.95123856  0.00059960     1.04600
Cu238      Cu  0.50428927  0.02437687  0.00416370     1.04300
C239        C  0.56195114  0.98180653  0.03143729     0.94900
C240        C  0.44580106  0.99414324  0.97322642     0.94100
C241        C  0.56145931  0.99253054  0.97305764     0.86200
C242        C  0.44580412  0.98310829  0.03168851     0.92500
N243        N  0.31812280  0.99000479  0.90831615    -0.25600
N244        N  0.33206265  0.95492318  0.90038481    -0.33500
C245        C  0.36500958  0.94222953  0.91156888     0.02700
C246        C  0.37239066  0.97073028  0.92724822     0.08800
C247        C  0.34209395  0.00075184  0.92471415    -0.04300
H248        H  0.38193562  0.91390784  0.90870535     0.09400
H249        H  0.33683553  0.02760537  0.93444510     0.10600
Cu250      Cu  0.30472978  0.92502781  0.87525551     0.44200
Cu251      Cu  0.26489316  0.01924769  0.89742890     0.42000
Cu252      Cu  0.20922089  0.96726717  0.85488028     0.43900
N253        N  0.27302626  0.90007122  0.85005064    -0.33000
N254        N  0.23771902  0.91486009  0.84263155    -0.27200
C255        C  0.22583497  0.89173417  0.82611686    -0.03300
C256        C  0.25536453  0.86117312  0.82302374     0.08900
C257        C  0.28474606  0.86753297  0.83842245     0.02700
H258        H  0.19850326  0.89756663  0.81674204     0.10300
H259        H  0.31294272  0.85001099  0.84087235     0.09400
N260        N  0.18835379  0.02050636  0.86986090    -0.34400
N261        N  0.20859085  0.03938993  0.88519135    -0.26600
C262        C  0.18652907  0.07250256  0.89142784    -0.01900
C263        C  0.15090367  0.07444736  0.87945470     0.06700
C264        C  0.15294413  0.04119172  0.86594355     0.04800
H265        H  0.19576583  0.09351261  0.90377617     0.09900
H266        H  0.13041138  0.03260487  0.85413845     0.08800
N267        N  0.68979074  0.98506723  0.90863136    -0.25600
N268        N  0.67448642  0.95071236  0.90041880    -0.33500
C269        C  0.64138583  0.93840519  0.91168811     0.02700
C270        C  0.63527015  0.96654899  0.92766041     0.08800
C271        C  0.66656492  0.99579959  0.92526439    -0.04300
H272        H  0.62315598  0.91090051  0.90851189     0.09400
H273        H  0.67272591  0.02233716  0.93511539     0.10600
Cu274      Cu  0.69959001  0.92240348  0.87429341     0.44200
Cu275      Cu  0.74297458  0.01405111  0.89729986     0.42000
Cu276      Cu  0.79492431  0.96601194  0.85278386     0.43900
N277        N  0.72921051  0.89960597  0.84798515    -0.33000
N278        N  0.76430138  0.91462202  0.84025297    -0.27200
C279        C  0.77500054  0.89212970  0.82334364    -0.03300
C280        C  0.74497005  0.86178681  0.82031653     0.08900
C281        C  0.71646154  0.86764208  0.83614674     0.02700
H282        H  0.80215682  0.89796221  0.81380422     0.10300
H283        H  0.68846117  0.84978918  0.83893769     0.09400
N284        N  0.81719104  0.01855585  0.86822678    -0.34400
N285        N  0.79808266  0.03590042  0.88432028    -0.26600
C286        C  0.82012199  0.06910081  0.89066334    -0.01900
C287        C  0.85462007  0.07284569  0.87798200     0.06700
C288        C  0.85192702  0.04042269  0.86392063     0.04800
H289        H  0.81156619  0.08904137  0.90355032     0.09900
H290        H  0.87349567  0.03328231  0.85146510     0.08800
O291        O  0.19637958  0.22099534  0.27343215    -0.71300
O292        O  0.18843967  0.30993931  0.22892769    -0.72200
O293        O  0.19045538  0.22131420  0.22899000    -0.60900
O294        O  0.19358491  0.30858312  0.27337792    -0.69300
O295        O  0.26239282  0.31159205  0.27112077    -0.68800
O296        O  0.25921554  0.22382310  0.22644428    -0.60100
O297        O  0.25722934  0.31160066  0.22679258    -0.72600
O298        O  0.26511287  0.22349255  0.27076607    -0.71400
Cu299      Cu  0.18978594  0.26515303  0.25121947     1.04600
Cu300      Cu  0.26335932  0.26770464  0.24870432     1.04300
C301        C  0.23232219  0.20840786  0.27909706     0.94900
C302        C  0.22174117  0.32483952  0.22091473     0.94100
C303        C  0.22422826  0.20864390  0.22075842     0.86200
C304        C  0.22829076  0.32372002  0.27932067     0.92500
N305        N  0.31713844  0.99362092  0.09620405    -0.25600
N306        N  0.33005339  0.03052903  0.10241055    -0.33500
C307        C  0.36262485  0.04223361  0.09063195     0.02700
C308        C  0.37088629  0.01122323  0.07637545     0.08800
C309        C  0.34143303  0.98074222  0.08034129    -0.04300
H310        H  0.37889823  0.07145083  0.09220702     0.09400
H311        H  0.33717467  0.95187812  0.07202823     0.10600
Cu312      Cu  0.30268401  0.06391122  0.12635871     0.44200
Cu313      Cu  0.26531519  0.96415708  0.10886894     0.42000
Cu314      Cu  0.20876999  0.02180068  0.14881181     0.43900
N315        N  0.27127922  0.09130814  0.15097577    -0.33000
N316        N  0.23646343  0.07638577  0.15901435    -0.27200
C317        C  0.22446709  0.10084410  0.17493076    -0.03300
C318        C  0.25334675  0.13254258  0.17703271     0.08900
C319        C  0.28256884  0.12540289  0.16164403     0.02700
H320        H  0.19746352  0.09512814  0.18459805     0.10300
H321        H  0.31031610  0.14343559  0.15856090     0.09400
N322        N  0.18942376  0.96507364  0.13687039    -0.34400
N323        N  0.21016437  0.94394611  0.12255009    -0.26600
C324        C  0.18903052  0.90899364  0.11809793    -0.01900
C325        C  0.15349471  0.90821633  0.13018483     0.06700
C326        C  0.15458801  0.94409392  0.14189418     0.04800
H327        H  0.19855572  0.88620184  0.10667817     0.09900
H328        H  0.13159931  0.95447126  0.15305320     0.08800
N329        N  0.76604715  0.07226137  0.16183899    -0.25600
N330        N  0.73255330  0.08746535  0.15271277    -0.33500
C331        C  0.72125599  0.12243010  0.16255807     0.02700
C332        C  0.74914575  0.12997965  0.17853199     0.08800
C333        C  0.77720790  0.09749108  0.17766374    -0.04300
H334        H  0.69457977  0.14098801  0.15839875     0.09400
H335        H  0.80321879  0.09200693  0.18800299     0.10600
Cu336      Cu  0.70339232  0.05998964  0.12737610     0.44200
Cu337      Cu  0.79367781  0.01710285  0.15244877     0.42000
Cu338      Cu  0.74226430  0.96203393  0.10924161     0.43900
N339        N  0.67756059  0.02763889  0.10259543    -0.33000
N340        N  0.69089682  0.99118393  0.09610252    -0.27200
C341        C  0.66721383  0.97870829  0.07986924    -0.03300
C342        C  0.63777123  0.00903921  0.07598205     0.08900
C343        C  0.64542260  0.03951284  0.09063711     0.02700
H344        H  0.67176843  0.95021226  0.07130777     0.10300
H345        H  0.62886199  0.06838722  0.09244897     0.09400
N346        N  0.79641624  0.94213798  0.12392759    -0.34400
N347        N  0.81500294  0.96196168  0.13949119    -0.26600
C348        C  0.84974970  0.94134558  0.14480917    -0.01900
C349        C  0.85306130  0.90713254  0.13198876     0.06700
C350        C  0.81891301  0.90849325  0.11895252     0.04800
H351        H  0.87125650  0.95093092  0.15689903     0.09900
H352        H  0.81124473  0.88698443  0.10655127     0.07200
N353        N  0.69157986  0.52432537  0.09009770    -0.25600
N354        N  0.67856090  0.48925034  0.09857764    -0.33500
C355        C  0.64578650  0.47495808  0.08771751     0.02700
C356        C  0.63740368  0.50226572  0.07166483     0.08800
C357        C  0.66705737  0.53336813  0.07360954    -0.04300
H358        H  0.62943700  0.44640535  0.09114871     0.09400
H359        H  0.67120863  0.55999469  0.06355944     0.10600
Cu360      Cu  0.70577507  0.46128296  0.12432866     0.44200
Cu361      Cu  0.74357852  0.55648841  0.10105776     0.42000
Cu362      Cu  0.79638206  0.50875813  0.14608244     0.43900
N363        N  0.73662372  0.43782121  0.15018961    -0.33000
N364        N  0.77051354  0.45480207  0.15816722    -0.27200
C365        C  0.78292239  0.43226862  0.17477004    -0.03300
C366        C  0.75522420  0.39967600  0.17734043     0.08900
C367        C  0.72628704  0.40434468  0.16155430     0.02700
H368        H  0.80944992  0.43968773  0.18448203     0.10300
H369        H  0.69947311  0.38488017  0.15859808     0.09400
N370        N  0.81628904  0.56246702  0.13116894    -0.34400
N371        N  0.79753076  0.57981283  0.11495197    -0.26600
C372        C  0.81923462  0.61372458  0.10918775    -0.01900
C373        C  0.85299006  0.61769077  0.12240963     0.06700
C374        C  0.85021803  0.58486356  0.13612473     0.04800
H375        H  0.81109522  0.63384066  0.09629935     0.09900
H376        H  0.87138186  0.57760794  0.14874757     0.08800
N377        N  0.23598396  0.45717292  0.15819572    -0.25600
N378        N  0.27285117  0.44398708  0.15206128    -0.33500
C379        C  0.28382494  0.41129002  0.16380863     0.02700
C380        C  0.25227725  0.40310387  0.17791316     0.08800
C381        C  0.22232553  0.43289124  0.17394877    -0.04300
H382        H  0.31264417  0.39445814  0.16211072     0.09400
H383        H  0.19313564  0.43706269  0.18205366     0.10600
Cu384      Cu  0.30589378  0.47011136  0.12741482     0.44200
Cu385      Cu  0.20753302  0.50839540  0.14472328     0.42000
Cu386      Cu  0.26262510  0.55839918  0.10065054     0.43900
N387        N  0.33235779  0.49644030  0.10088643    -0.33000
N388        N  0.31702661  0.52888439  0.09094956    -0.27200
C389        C  0.34056656  0.53649828  0.07387737    -0.03300
C390        C  0.37199714  0.50715886  0.07305185     0.08900
C391        C  0.36567253  0.48243650  0.09040831     0.02700
H392        H  0.33429583  0.56056258  0.06256045     0.10300
H393        H  0.38345900  0.45545166  0.09483409     0.09400
N394        N  0.20678920  0.57944470  0.11349318    -0.34400
N395        N  0.18713044  0.56124363  0.12924305    -0.26600
C396        C  0.15260916  0.58286747  0.13376429    -0.01900
C397        C  0.15039707  0.61608165  0.12026379     0.06700
C398        C  0.18510133  0.61314153  0.10762388     0.04800
H399        H  0.13098328  0.57516446  0.14613442     0.09900
H400        H  0.19416857  0.63409705  0.09522111     0.08800
N401        N  0.17831765  0.99510464  0.41057343    -0.25600
N402        N  0.15808956  0.02845069  0.40430671    -0.33500
C403        C  0.12608971  0.03526580  0.41748722     0.02700
C404        C  0.12622761  0.00449277  0.43264987     0.08800
C405        C  0.15958939  0.97961710  0.42766951    -0.04300
H406        H  0.10414696  0.06036503  0.41594595     0.09400
H407        H  0.16980618  0.95235226  0.43601853     0.10600
Cu408      Cu  0.17529029  0.06230778  0.37784979     0.44200
Cu409      Cu  0.23152337  0.97239582  0.39634926     0.42000
Cu410      Cu  0.27351105  0.03125738  0.35363851     0.43900
N411        N  0.20068787  0.09029574  0.35130573    -0.33000
N412        N  0.23674602  0.07964016  0.34298032    -0.27200
C413        C  0.24444184  0.10389332  0.32630943    -0.03300
C414        C  0.21158127  0.13108984  0.32389905     0.08900
C415        C  0.18437429  0.12142785  0.33996697     0.02700
H416        H  0.27167702  0.10122828  0.31649053     0.10300
H417        H  0.15493506  0.13609000  0.34323225     0.09400
N418        N  0.30204215  0.97869313  0.36554873    -0.34400
N419        N  0.28620601  0.95678377  0.38112198    -0.26600
C420        C  0.31113284  0.92433367  0.38503026    -0.01900
C421        C  0.34412753  0.92603434  0.37126124     0.06700
C422        C  0.33752316  0.96074598  0.35910478     0.04800
H423        H  0.30556059  0.90123668  0.39697537     0.09900
H424        H  0.35684438  0.97200694  0.34646243     0.08800
N425        N  0.75328056  0.07540411  0.34082872    -0.25600
N426        N  0.78504596  0.09007844  0.35163113    -0.33500
C427        C  0.80212676  0.12208449  0.34128126     0.02700
C428        C  0.77970974  0.12835588  0.32317858     0.08800
C429        C  0.74886741  0.09817161  0.32333716    -0.04300
H430        H  0.82858390  0.13985284  0.34670613     0.09400
H431        H  0.72537524  0.09272604  0.31154182     0.10600
Cu432      Cu  0.80288074  0.06628117  0.38008182     0.44200
Cu433      Cu  0.71942335  0.02399536  0.35064100     0.42000
Cu434      Cu  0.75546259  0.97195100  0.39886880     0.43900
N435        N  0.81882589  0.03826291  0.40782683    -0.33000
N436        N  0.80322839  0.00279939  0.41460824    -0.27200
C437        C  0.82280002  0.99235306  0.43250054    -0.03300
C438        C  0.85161867  0.02314260  0.43708981     0.08900
C439        C  0.84795389  0.05168916  0.42121891     0.02700
H440        H  0.81639182  0.96467515  0.44148027     0.10300
H441        H  0.86606541  0.07971958  0.41919091     0.09400
N442        N  0.70590265  0.95170749  0.38037150    -0.34400
N443        N  0.69289771  0.97069080  0.36320799    -0.26600
C444        C  0.65962190  0.95035101  0.35557000    -0.01900
C445        C  0.65135953  0.91714909  0.36848406     0.06700
C446        C  0.68110240  0.91880214  0.38404150     0.04800
H447        H  0.64236297  0.95951769  0.34180881     0.09900
H448        H  0.68406686  0.89812103  0.39727203     0.08800
N449        N  0.80418677  0.55453330  0.39809821    -0.25600
N450        N  0.81921661  0.51802844  0.39267107    -0.33500
C451        C  0.85131134  0.50887767  0.40539896     0.02700
C452        C  0.85669326  0.54131164  0.41943454     0.08800
C453        C  0.82643482  0.56970150  0.41419609    -0.04300
H454        H  0.86915382  0.48062603  0.40452322     0.09400
H455        H  0.82021834  0.59880218  0.42194335     0.10600
Cu456      Cu  0.79407228  0.48212216  0.36849448     0.44200
Cu457      Cu  0.75169560  0.58069526  0.38486576     0.42000
Cu458      Cu  0.69541187  0.51888214  0.34743952     0.43900
N459        N  0.76134675  0.45265112  0.34439045    -0.33000
N460        N  0.72508574  0.46568106  0.33724332    -0.27200
C461        C  0.71218734  0.44029846  0.32186607    -0.03300
C462        C  0.74176822  0.40999602  0.31893356     0.08900
C463        C  0.77257475  0.41871222  0.33352997     0.02700
H464        H  0.68375606  0.44426525  0.31306981     0.10300
H465        H  0.80111556  0.40186294  0.33606687     0.09400
N466        N  0.67404526  0.57515416  0.35867258    -0.34400
N467        N  0.69509465  0.59800720  0.37221011    -0.26600
C468        C  0.67336937  0.63248045  0.37644024    -0.01900
C469        C  0.63707106  0.63115248  0.36499849     0.06700
C470        C  0.63831520  0.59453780  0.35388330     0.04800
H471        H  0.68322226  0.65655930  0.38713227     0.09900
H472        H  0.61508134  0.58280797  0.34315718     0.08800
N473        N  0.27343370  0.46462461  0.33700924    -0.25600
N474        N  0.24118559  0.44551205  0.34544103    -0.33500
C475        C  0.23182345  0.41192077  0.33399670     0.02700
C476        C  0.25970130  0.40968335  0.31754737     0.08800
C477        C  0.28582318  0.44341621  0.32001426    -0.04300
H478        H  0.20657917  0.39082114  0.33748482     0.09400
H479        H  0.31128116  0.45242953  0.30993786     0.10600
Cu480      Cu  0.21077173  0.46645946  0.37176436     0.44200
Cu481      Cu  0.29679258  0.51979978  0.34864573     0.42000
Cu482      Cu  0.23973692  0.56727546  0.39190913     0.43900
N483        N  0.18211697  0.49414414  0.39696036    -0.33000
N484        N  0.19144399  0.53151820  0.40400574    -0.27200
C485        C  0.16564119  0.54074541  0.41989828    -0.03300
C486        C  0.13908416  0.50735491  0.42295774     0.08900
C487        C  0.15062195  0.47840444  0.40825159     0.02700
H488        H  0.16655706  0.56938062  0.42865627     0.10300
H489        H  0.13667875  0.44829232  0.40568981     0.09400
N490        N  0.29191227  0.59345258  0.37780463    -0.34400
N491        N  0.31254981  0.57585445  0.36227349    -0.26600
C492        C  0.34492522  0.60007232  0.35696372    -0.01900
C493        C  0.34460258  0.63442820  0.36971220     0.06700
C494        C  0.31077039  0.62943693  0.38277861     0.04800
H495        H  0.36712017  0.59301869  0.34477407     0.09900
H496        H  0.30074795  0.65016366  0.39505892     0.08800
O497        O  0.95900932  0.71629913  0.14142236    -0.71300
O498        O  0.04836555  0.80362131  0.14490262    -0.72200
O499        O  0.95977206  0.80392694  0.14568639    -0.60900
O500        O  0.04762011  0.71595544  0.14060410    -0.69300
O501        O  0.04649350  0.72235619  0.10601011    -0.68800
O502        O  0.95868170  0.81031370  0.11108852    -0.60100
O503        O  0.04720827  0.81003889  0.11030553    -0.72600
O504        O  0.95781784  0.72270519  0.10682700    -0.71400
Cu505      Cu  0.00374626  0.75971064  0.14436939     1.04600
Cu506      Cu  0.00251928  0.76659025  0.10734530     1.04300
C507        C  0.94429960  0.70598025  0.12361173     0.94900
C508        C  0.06180983  0.82042838  0.12812679     0.94100
C509        C  0.94537254  0.82075313  0.12914063     0.86200
C510        C  0.06087779  0.70547142  0.12254308     0.92500
O511        O  0.53375566  0.73531131  0.34874734    -0.71300
O512        O  0.44944052  0.82679684  0.35059396    -0.72200
O513        O  0.53820875  0.82319781  0.34900300    -0.60900
O514        O  0.44557367  0.73885645  0.35057867    -0.69300
O515        O  0.44830671  0.73862151  0.38531439    -0.68800
O516        O  0.54044004  0.82255852  0.38373920    -0.60100
O517        O  0.45195257  0.82638652  0.38532588    -0.72600
O518        O  0.53632402  0.73488300  0.38348560    -0.71400
Cu519      Cu  0.49163799  0.78112042  0.34849141     1.04600
Cu520      Cu  0.49434209  0.78067336  0.38567204     1.04300
C521        C  0.54819671  0.72079673  0.36582033     0.94900
C522        C  0.43716369  0.84058888  0.36824651     0.94100
C523        C  0.55410000  0.83568531  0.36620796     0.86200
C524        C  0.43263857  0.72546697  0.36822655     0.92500
O525        O  0.45125174  0.29326437  0.64378710    -0.71300
O526        O  0.53434056  0.20104058  0.64920435    -0.72200
O527        O  0.53975564  0.28862148  0.64581551    -0.60900
O528        O  0.44633702  0.20553774  0.64724521    -0.69300
O529        O  0.44910877  0.20025542  0.61261469    -0.68800
O530        O  0.54248873  0.28327029  0.61119182    -0.60100
O531        O  0.53697432  0.19581959  0.61456557    -0.72600
O532        O  0.45413187  0.28781223  0.60916989    -0.71400
Cu533      Cu  0.49280636  0.24738623  0.64773991     1.04600
Cu534      Cu  0.49575632  0.24167319  0.61067420     1.04300
C535        C  0.43950065  0.30474782  0.62561428     0.94900
C536        C  0.54850049  0.18393854  0.63268980     0.94100
C537        C  0.55601398  0.29860931  0.62830044     0.86200
C538        C  0.43335404  0.18968096  0.63015218     0.92500
O539        O  0.95848153  0.17862826  0.86449119    -0.71300
O540        O  0.04799322  0.26599988  0.86726131    -0.72200
O541        O  0.04685576  0.17807508  0.86505041    -0.60900
O542        O  0.95930737  0.26676856  0.86678845    -0.69300
O543        O  0.95841951  0.26348549  0.90148817    -0.68800
O544        O  0.04614414  0.17468745  0.89975785    -0.60100
O545        O  0.04737265  0.26285213  0.90196224    -0.72600
O546        O  0.95756556  0.17512028  0.89918609    -0.71400
Cu547      Cu  0.00315920  0.22251895  0.86470004     1.04600
Cu548      Cu  0.00231330  0.21893749  0.90183096     1.04300
C549        C  0.94418811  0.16300734  0.88137942     0.94900
C550        C  0.06189207  0.27795642  0.88497726     0.94100
C551        C  0.06022067  0.16254974  0.88212769     0.86200
C552        C  0.94510541  0.27898693  0.88438153     0.92500
C553        C  0.37423887  0.66783628  0.36952877    -0.11600
C554        C  0.40034396  0.69470424  0.36892018    -0.13100
C555        C  0.60476782  0.66177305  0.36485167    -0.11600
C556        C  0.57854296  0.68834873  0.36515310    -0.13100
C557        C  0.58822172  0.86457540  0.36600075    -0.11600
C558        C  0.61717654  0.88842172  0.36681767    -0.13100
C559        C  0.40558798  0.87196338  0.36893290    -0.11600
C560        C  0.37798077  0.89713442  0.36979435    -0.13100
C561        C  0.11908931  0.64790992  0.12012760    -0.11600
C562        C  0.09253591  0.67424365  0.12086488    -0.13100
C563        C  0.91192422  0.67518023  0.12249730    -0.11600
C564        C  0.88478793  0.64922981  0.12208870    -0.13100
C565        C  0.91341496  0.85163735  0.13078562    -0.11600
C566        C  0.88607410  0.87711805  0.13162918    -0.13100
C567        C  0.09397468  0.85140356  0.12927914    -0.11600
C568        C  0.12111927  0.87730482  0.12990243    -0.13100
C569        C  0.25285986  0.37002904  0.19393692    -0.14700
C570        C  0.21917005  0.35785874  0.20485751    -0.29900
H571        H  0.28234677  0.35454248  0.19649115     0.14300
H572        H  0.18918187  0.37195366  0.20183703     0.14800
C573        C  0.25504107  0.16582645  0.19284493    -0.14700
C574        C  0.22220863  0.17580412  0.20475639    -0.29900
H575        H  0.28394210  0.18303170  0.19441953     0.14300
H576        H  0.19272386  0.15996741  0.20253366     0.14800
C577        C  0.22807490  0.35496393  0.29605468    -0.14700
C578        C  0.26120451  0.37864324  0.30064050    -0.29900
H579        H  0.19915665  0.35923108  0.30450015     0.14300
H580        H  0.28943188  0.37620054  0.29143145     0.14800
C581        C  0.23703488  0.17600447  0.29524626    -0.14700
C582        C  0.20570609  0.16325271  0.30762937    -0.29900
H583        H  0.26784381  0.16315651  0.29735181     0.14300
H584        H  0.17530913  0.17742618  0.30621477     0.14800
C585        C  0.88643106  0.10439334  0.87915057    -0.11600
C586        C  0.91273848  0.13115960  0.88026834    -0.13100
C587        C  0.11857379  0.10508988  0.88064722    -0.11600
C588        C  0.09175351  0.13110804  0.88146122    -0.13100
C589        C  0.59448532  0.97836542  0.04768740    -0.14700
C590        C  0.60565484  0.01099881  0.05949394    -0.29900
H591        H  0.60877918  0.94838757  0.05024859     0.14300
H592        H  0.58998031  0.04044854  0.05737805     0.14800
C593        C  0.41349969  0.98017767  0.04807378    -0.14700
C594        C  0.40323314  0.01287314  0.05998277    -0.29900
H595        H  0.39846910  0.95044321  0.05057848     0.14300
H596        H  0.41951104  0.04211065  0.05788214     0.14800
C597        C  0.60298367  0.96383267  0.94404437    -0.14700
C598        C  0.59367639  0.99572059  0.95668425    -0.29900
H599        H  0.58582089  0.93492257  0.94540983     0.14300
H600        H  0.60933384  0.02529757  0.95470056     0.14800
C601        C  0.41383454  0.99832380  0.95680551    -0.14700
C602        C  0.40430212  0.96711175  0.94375728    -0.29900
H603        H  0.39875459  0.02814254  0.95506304     0.14300
H604        H  0.42090482  0.93796857  0.94493778     0.14800
C605        C  0.75380773  0.36756129  0.19377402    -0.14700
C606        C  0.78624787  0.35790079  0.20612368    -0.29900
H607        H  0.72487575  0.35036598  0.19531395     0.14300
H608        H  0.81601701  0.37327725  0.20400258     0.14800
C609        C  0.77954674  0.17563611  0.20559868    -0.14700
C610        C  0.74706662  0.16458989  0.19363028    -0.29900
H611        H  0.80898828  0.15970107  0.20387451     0.14300
H612        H  0.71819830  0.18177713  0.19464432     0.14800
C613        C  0.77352442  0.35431696  0.29770034    -0.14700
C614        C  0.74015132  0.37696436  0.30286450    -0.29900
H615        H  0.80292325  0.35988952  0.30555151     0.14300
H616        H  0.71115824  0.37250467  0.29445076     0.14800
C617        C  0.75831972  0.17347881  0.29411869    -0.14700
C618        C  0.78779858  0.16089673  0.30746579    -0.29900
H619        H  0.72746766  0.15983039  0.29488068     0.14300
H620        H  0.81790476  0.17621162  0.30762046     0.14800
C621        C  0.09430960  0.30894770  0.88566387    -0.11600
C622        C  0.12094559  0.33550356  0.88510302    -0.13100
C623        C  0.88811605  0.33805259  0.88451885    -0.11600
C624        C  0.91379785  0.31080068  0.88485713    -0.13100
C625        C  0.41316457  0.52720761  0.04150895    -0.14700
C626        C  0.40390452  0.49993257  0.05674023    -0.29900
H627        H  0.39764202  0.55699152  0.04103922     0.14300
H628        H  0.42097390  0.47101320  0.05761113     0.14800
C629        C  0.59414909  0.52542081  0.04154282    -0.14700
C630        C  0.60476495  0.49641321  0.05563888    -0.29900
H631        H  0.60915457  0.55560616  0.04179681     0.14300
H632        H  0.58851322  0.46683605  0.05567760     0.14800
C633        C  0.41255053  0.47963098  0.95304542    -0.14700
C634        C  0.40010824  0.50755893  0.93876938    -0.29900
H635        H  0.39862197  0.44897593  0.95323742     0.14300
H636        H  0.41506215  0.53774476  0.93818622     0.14800
C637        C  0.59595729  0.47954106  0.95374703    -0.14700
C638        C  0.61003348  0.50833441  0.94024397    -0.29900
H639        H  0.60931671  0.44873227  0.95367392     0.14300
H640        H  0.59568280  0.53871722  0.93998087     0.14800
C641        C  0.57791542  0.15082963  0.63442913    -0.11600
C642        C  0.60308655  0.12329354  0.63499672    -0.13100
C643        C  0.37457558  0.13234010  0.63083604    -0.11600
C644        C  0.40093704  0.15900224  0.63064983    -0.13100
C645        C  0.89605316  0.99297912  0.46470988    -0.14700
C646        C  0.88161242  0.02614895  0.45443449    -0.29900
H647        H  0.88504123  0.96218628  0.46062802     0.14300
H648        H  0.89482509  0.05652423  0.45761756     0.14800
C649        C  0.88294672  0.00925039  0.56216186    -0.14700
C650        C  0.90997415  0.98063615  0.55543578    -0.29900
H651        H  0.88284217  0.03969426  0.55492441     0.14300
H652        H  0.90902113  0.94955039  0.56189504     0.14800
C653        C  0.08727907  0.01486127  0.54972043    -0.14700
C654        C  0.10138892  0.98170344  0.56022203    -0.29900
H655        H  0.09925526  0.04553635  0.55329235     0.14300
H656        H  0.08744852  0.95150124  0.55745125     0.14800
C657        C  0.07164514  0.02673565  0.45775367    -0.14700
C658        C  0.09728090  0.99747865  0.45029028    -0.29900
H659        H  0.07198662  0.05755611  0.45097142     0.14300
H660        H  0.09821460  0.96734673  0.45782176     0.14800
C661        C  0.38301288  0.36351535  0.62175093    -0.11600
C662        C  0.40903480  0.33693589  0.62358720    -0.13100
C663        C  0.61981681  0.35046386  0.62750376    -0.11600
C664        C  0.59043777  0.32711035  0.62785504    -0.13100
C665        C  0.08848441  0.53452840  0.44842291    -0.14700
C666        C  0.10535221  0.50229348  0.43835493    -0.29900
H667        H  0.09938081  0.56574345  0.44520888     0.14300
H668        H  0.09319965  0.47127677  0.44090599     0.14800
C669        C  0.08348265  0.52710997  0.53861490    -0.14700
C670        C  0.10832924  0.49491523  0.54318230    -0.29900
H671        H  0.08664768  0.55598005  0.54717477     0.14300
H672        H  0.10654608  0.46684610  0.53385922     0.14800
C673        C  0.90686479  0.51263673  0.53813437    -0.14700
C674        C  0.89121225  0.47706546  0.54568778    -0.29900
H675        H  0.89764568  0.54186179  0.54511165     0.14300
H676        H  0.89852097  0.44780555  0.53818978     0.14800
C677        C  0.90878534  0.51338537  0.44423174    -0.14700
C678        C  0.88696289  0.54558743  0.43680104    -0.29900
H679        H  0.90416964  0.48285541  0.43750244     0.14300
H680        H  0.89038665  0.57583988  0.44402859     0.14800
C681        C  0.25248618  0.63959588  0.70357405    -0.14700
C682        C  0.22101849  0.62722609  0.69123596    -0.29900
H683        H  0.28363461  0.62790525  0.70088351     0.14300
H684        H  0.19042601  0.64086082  0.69312901     0.14800
C685        C  0.25171163  0.64156592  0.79575097    -0.14700
C686        C  0.22151641  0.61582380  0.80239564    -0.29900
H687        H  0.28242053  0.63972383  0.80270595     0.14300
H688        H  0.19125946  0.61631575  0.79487290     0.14800
C689        C  0.22558370  0.81841195  0.79439490    -0.14700
C690        C  0.25805329  0.82979060  0.80631787    -0.29900
H691        H  0.19504642  0.83156441  0.79718583     0.14300
H692        H  0.28787534  0.81462105  0.80420672     0.14800
C693        C  0.22686464  0.81681669  0.70243743    -0.14700
C694        C  0.25828924  0.84217238  0.69694702    -0.29900
H695        H  0.19685114  0.81970124  0.69483788     0.14300
H696        H  0.28765113  0.84045385  0.70527360     0.14800
C697        C  0.75532168  0.64156786  0.79652326    -0.14700
C698        C  0.78698361  0.61848737  0.80363905    -0.29900
H699        H  0.72490317  0.63860963  0.80369371     0.14300
H700        H  0.81696163  0.61985386  0.79588817     0.14800
C701        C  0.75292627  0.63245224  0.70443860    -0.14700
C702        C  0.78429034  0.62073287  0.69191878    -0.29900
H703        H  0.72234027  0.61864938  0.70251757     0.14300
H704        H  0.81415110  0.63641547  0.69290682     0.14800
C705        C  0.77142469  0.81298456  0.70114831    -0.14700
C706        C  0.73918372  0.83774798  0.69658361    -0.29900
H707        H  0.80096489  0.81723737  0.69320380     0.14300
H708        H  0.71036830  0.83455574  0.70531416     0.14800
C709        C  0.77450264  0.81844241  0.79201626    -0.14700
C710        C  0.74196434  0.83004653  0.80376846    -0.29900
H711        H  0.80494485  0.83215789  0.79467182     0.14300
H712        H  0.71218039  0.81447378  0.80184743     0.14800
loop_ 
_geom_bond_atom_site_label_1 
_geom_bond_atom_site_label_2 
_geom_bond_distance 
_geom_bond_site_symmetry_2 
_ccdc_geom_bond_type 
O1           Cu9   2.003       .  S
O1           C11   1.276       .  A
O2           Cu9   2.012       .  S
O2           C12   1.279       .  A
O3           Cu9   2.011       .  S
O3           C13   1.277       .  A
O4           Cu9   2.006       .  S
O4           C14   1.278       .  A
O5          Cu10   2.017       .  S
O5           C14   1.278       .  A
O6          Cu10   2.014       .  S
O6           C13   1.279       .  A
O7          Cu10   2.018       .  S
O7           C12   1.278       .  A
O8          Cu10   2.027       .  S
O8           C11   1.280       .  A
Cu9         Cu10   2.374       .  S
C11         C697   1.478       .  S
C12         C705   1.480       .  S
C13         C701   1.476       .  S
C14         C709   1.477       .  S
O15         Cu23   2.004       .  S
O15          C25   1.278       .  A
O16         Cu23   2.009       .  S
O16          C26   1.277       .  A
O17         Cu23   2.016       .  S
O17          C27   1.279       .  A
O18         Cu23   2.007       .  S
O18          C28   1.277       .  A
O19         Cu24   2.030       .  S
O19          C28   1.281       .  A
O20         Cu24   2.020       .  S
O20          C27   1.278       .  A
O21         Cu24   2.013       .  S
O21          C26   1.279       .  A
O22         Cu24   2.020       .  S
O22          C25   1.278       .  A
Cu23        Cu24   2.374       .  S
C25         C689   1.477       .  S
C26         C681   1.475       .  S
C27         C693   1.481       .  S
C28         C685   1.480       .  S
O29         Cu37   2.008       .  S
O29          C39   1.276       .  A
O30         Cu37   2.007   1_455  S
O30          C40   1.278       .  A
O31         Cu37   2.022       .  S
O31          C41   1.280       .  A
O32         Cu37   2.013   1_455  S
O32          C42   1.279       .  A
O33         Cu38   2.001   1_455  S
O33          C42   1.275       .  A
O34         Cu38   1.998       .  S
O34          C41   1.275       .  A
O35         Cu38   2.022   1_455  S
O35          C40   1.279       .  A
O36         Cu38   2.030       .  S
O36          C39   1.281       .  A
Cu37        Cu38   2.374       .  S
C39         C677   1.481       .  S
C40         C669   1.479       .  S
C41         C673   1.474       .  S
C42         C665   1.473       .  S
N43          N44   1.323       .  A
N43          C47   1.347       .  A
N43         Cu51   2.078       .  S
N44          C45   1.343       .  A
N44         Cu50   2.074       .  S
C45          C46   1.385       .  A
C45          H48   1.081       .  S
C46         C674   1.478       .  S
C46          C47   1.383       .  A
C47          H49   1.082       .  S
Cu50         N53   2.074       .  S
Cu51         N61   2.079       .  S
Cu52         N54   2.076       .  S
Cu52         N60   2.076       .  S
N53          N54   1.322       .  A
N53          C57   1.346       .  A
N54          C55   1.345       .  A
C55          C56   1.386       .  A
C55          H58   1.082       .  S
C56         C702   1.478       .  S
C56          C57   1.383       .  A
C57          H59   1.081       .  S
N60          N61   1.324       .  A
N60          C64   1.346       .  A
N61          C62   1.347       .  A
C62          C63   1.381       .  A
C62          H65   1.082       .  S
C63          C64   1.379       .  A
C63         C663   1.440       .  S
C64          H66   1.082       .  S
N67          N68   1.322       .  A
N67          C71   1.346       .  A
N67         Cu75   2.073       .  S
N68          C69   1.345       .  A
N68         Cu74   2.074       .  S
C69          C70   1.382       .  A
C69          H72   1.082       .  S
C70         C682   1.477       .  S
C70          C71   1.386       .  A
C71          H73   1.082       .  S
Cu74         N77   2.074       .  S
Cu75         N85   2.073       .  S
Cu76         N78   2.085       .  S
Cu76         N84   2.085       .  S
N77          N78   1.323       .  A
N77          C81   1.346       .  A
N78          C79   1.347       .  A
C79          C80   1.384       .  A
C79          H82   1.082       .  S
C80         C670   1.479       .  S
C80          C81   1.385       .  A
C81          H83   1.082       .  S
N84          N85   1.324       .  A
N84          C88   1.347       .  A
N85          C86   1.345       .  A
C86          C87   1.378       .  A
C86          H89   1.082       .  S
C87          C88   1.382       .  A
C87         C661   1.440       .  S
C88          H90   1.082       .  S
O91         Cu99   2.013       .  S
O91         C101   1.277       .  A
O92         Cu99   2.007   1_455  S
O92         C102   1.278   1_565  A
O93         Cu99   2.010       .  S
O93         C103   1.276       .  A
O94         Cu99   2.018   1_455  S
O94         C104   1.280   1_565  A
O95        Cu100   2.017   1_455  S
O95         C104   1.278       .  A
O96        Cu100   2.020       .  S
O96         C103   1.280   1_545  A
O97        Cu100   2.017   1_455  S
O97         C102   1.278       .  A
O98        Cu100   2.007       .  S
O98         C101   1.279   1_545  A
Cu99       Cu100   2.374   1_565  S
C101        C645   1.476       .  S
C102        C653   1.477       .  S
C103        C650   1.480       .  S
C104        C657   1.481       .  S
N105        N106   1.323   1_545  A
N105        C109   1.347       .  A
N105       Cu113   2.075       .  S
N106        C107   1.345       .  A
N106       Cu112   2.083       .  S
C107        C108   1.382       .  A
C107        H110   1.082       .  S
C108        C654   1.477       .  S
C108        C109   1.385   1_565  A
C109        H111   1.082       .  S
Cu112       N115   2.083       .  S
Cu113       N123   2.075       .  S
Cu114       N116   2.077       .  S
Cu114       N122   2.077   1_565  S
N115        N116   1.322       .  A
N115        C119   1.348       .  A
N116        C117   1.345       .  A
C117        C118   1.382       .  A
C117        H120   1.082       .  S
C118        C694   1.481       .  S
C118        C119   1.388       .  A
C119        H121   1.082       .  S
N122        N123   1.323       .  A
N122        C126   1.346       .  A
N123        C124   1.346       .  A
C124        C125   1.380       .  A
C124        H127   1.082       .  S
C125        C126   1.380       .  A
C125        C643   1.438       .  S
C126        H128   1.082       .  S
N129        N130   1.325       .  A
N129        C133   1.344       .  A
N129       Cu137   2.077       .  S
N130        C131   1.349       .  A
N130       Cu136   2.094       .  S
C131        C132   1.388       .  A
C131        H134   1.082       .  S
C132        C706   1.479       .  S
C132        C133   1.380       .  A
C133        H135   1.082       .  S
Cu136       N139   2.093       .  S
Cu137       N147   2.076   1_565  S
Cu138       N140   2.063       .  S
Cu138       N146   2.063       .  S
N139        N140   1.322   1_565  A
N139        C143   1.350       .  A
N140        C141   1.342       .  A
C141        C142   1.378       .  A
C141        H144   1.082       .  S
C142        C649   1.479       .  S
C142        C143   1.390   1_545  A
C143        H145   1.082       .  S
N146        N147   1.321       .  A
N146        C150   1.343       .  A
N147        C148   1.347       .  A
C148        C149   1.382       .  A
C148        H151   1.082       .  S
C149        C150   1.378       .  A
C149        C642   1.437       .  S
C150        H152   1.082       .  S
O153       Cu161   2.019       .  S
O153        C163   1.279       .  A
O154       Cu161   2.024   1_554  S
O154        C164   1.279       .  A
O155       Cu161   2.024   1_554  S
O155        C165   1.279       .  A
O156       Cu161   2.021       .  S
O156        C166   1.280       .  A
O157       Cu162   2.015   1_556  S
O157        C166   1.278       .  A
O158       Cu162   2.007       .  S
O158        C165   1.278       .  A
O159       Cu162   2.017       .  S
O159        C164   1.279       .  A
O160       Cu162   2.022   1_556  S
O160        C163   1.278       .  A
Cu161      Cu162   2.372   1_556  S
C163        C637   1.484       .  S
C164        C625   1.484       .  S
C165        C629   1.481       .  S
C166        C633   1.481       .  S
N167        N168   1.323       .  A
N167        C171   1.349       .  A
N167       Cu175   2.092       .  S
N168        C169   1.345       .  A
N168       Cu174   2.081       .  S
C169        C170   1.382       .  A
C169        H172   1.082       .  S
C170        C638   1.483       .  S
C170        C171   1.389       .  A
C171        H173   1.081       .  S
Cu174       N177   2.080       .  S
Cu175       N185   2.092       .  S
Cu176       N178   2.076       .  S
Cu176       N184   2.077       .  S
N177        N178   1.322       .  A
N177        C181   1.346       .  A
N178        C179   1.347       .  A
C179        C180   1.383       .  A
C179        H182   1.081       .  S
C180        C698   1.482       .  S
C180        C181   1.387       .  A
C181        H183   1.082       .  S
N184        N185   1.324       .  A
N184        C188   1.346       .  A
N185        C186   1.349       .  A
C186        C187   1.384       .  A
C186        H189   1.082       .  S
C187        C188   1.379       .  A
C187        C623   1.444       .  S
C188        H190   1.082       .  S
N191        N192   1.322       .  A
N191        C195   1.348       .  A
N191       Cu199   2.082       .  S
N192        C193   1.346       .  A
N192       Cu198   2.081       .  S
C193        C194   1.388       .  A
C193        H196   1.082       .  S
C194        C686   1.485       .  S
C194        C195   1.385       .  A
C195        H197   1.082       .  S
Cu198       N201   2.081       .  S
Cu199       N209   2.082       .  S
Cu200       N202   2.091       .  S
Cu200       N208   2.091       .  S
N201        N202   1.323       .  A
N201        C205   1.346       .  A
N202        C203   1.348       .  A
C203        C204   1.389       .  A
C203        H206   1.082       .  S
C204        C634   1.483       .  S
C204        C205   1.383       .  A
C205        H207   1.082       .  S
N208        N209   1.324       .  A
N208        C212   1.350       .  A
N209        C210   1.346       .  A
C210        C211   1.380       .  A
C210        H213   1.082       .  S
C211        C212   1.384       .  A
C211        C622   1.445       .  S
C212        H214   1.082       .  S
O215       Cu223   2.002       .  S
O215        C225   1.275       .  A
O216       Cu223   2.007       .  S
O216        C226   1.276       .  A
O217       Cu223   2.033       .  S
O217        C227   1.280       .  A
O218       Cu223   2.024       .  S
O218        C228   1.281       .  A
O219       Cu224   1.996       .  S
O219        C228   1.275       .  A
O220       Cu224   1.995       .  S
O220        C227   1.276       .  A
O221       Cu224   2.022       .  S
O221        C226   1.280       .  A
O222       Cu224   2.031       .  S
O222        C225   1.281       .  A
Cu223      Cu224   2.374       .  S
C225        C613   1.479       .  S
C226        C609   1.478       .  S
C227        C606   1.481       .  S
C228        C617   1.474       .  S
O229       Cu237   2.020       .  S
O229        C239   1.278       .  A
O230       Cu237   2.013   1_556  S
O230        C240   1.279       .  A
O231       Cu237   2.010   1_556  S
O231        C241   1.278       .  A
O232       Cu237   2.018       .  S
O232        C242   1.278       .  A
O233       Cu238   2.009       .  S
O233        C242   1.279   1_545  A
O234       Cu238   2.014   1_556  S
O234        C241   1.278   1_545  A
O235       Cu238   2.011   1_556  S
O235        C240   1.277   1_545  A
O236       Cu238   2.006       .  S
O236        C239   1.278   1_545  A
Cu237      Cu238   2.374   1_565  S
C239        C589   1.479       .  S
C240        C601   1.476       .  S
C241        C598   1.477       .  S
C242        C593   1.479       .  S
N243        N244   1.322       .  A
N243        C247   1.346   1_565  A
N243       Cu251   2.079   1_565  S
N244        C245   1.344       .  A
N244       Cu250   2.069       .  S
C245        C246   1.381       .  A
C245        H248   1.082       .  S
C246        C602   1.478       .  S
C246        C247   1.387   1_565  A
C247        H249   1.081       .  S
Cu250       N253   2.069       .  S
Cu251       N261   2.080       .  S
Cu252       N254   2.082       .  S
Cu252       N260   2.082   1_565  S
N253        N254   1.322       .  A
N253        C257   1.343       .  A
N254        C255   1.348       .  A
C255        C256   1.387       .  A
C255        H258   1.081       .  S
C256        C690   1.476       .  S
C256        C257   1.380       .  A
C257        H259   1.083       .  S
N260        N261   1.324       .  A
N260        C264   1.347       .  A
N261        C262   1.347       .  A
C262        C263   1.380       .  A
C262        H265   1.082       .  S
C263        C264   1.380       .  A
C263        C587   1.441       .  S
C264        H266   1.082       .  S
N267        N268   1.321       .  A
N267        C271   1.346       .  A
N267       Cu275   2.078   1_565  S
N268        C269   1.345       .  A
N268       Cu274   2.070       .  S
C269        C270   1.382       .  A
C269        H272   1.082       .  S
C270        C597   1.478       .  S
C270        C271   1.387       .  A
C271        H273   1.082   1_565  S
Cu274       N277   2.070       .  S
Cu275       N285   2.079       .  S
Cu276       N278   2.087       .  S
Cu276       N284   2.088   1_565  S
N277        N278   1.323       .  A
N277        C281   1.343       .  A
N278        C279   1.348       .  A
C279        C280   1.387       .  A
C279        H282   1.082       .  S
C280        C710   1.476       .  S
C280        C281   1.380       .  A
C281        H283   1.083       .  S
N284        N285   1.324       .  A
N284        C288   1.348       .  A
N285        C286   1.346       .  A
C286        C287   1.380       .  A
C286        H289   1.082       .  S
C287        C288   1.383       .  A
C287        C585   1.444       .  S
C288        H290   1.082       .  S
O291       Cu299   2.024       .  S
O291        C301   1.280       .  A
O292       Cu299   2.031       .  S
O292        C302   1.280       .  A
O293       Cu299   2.007       .  S
O293        C303   1.276       .  A
O294       Cu299   1.997       .  S
O294        C304   1.275       .  A
O295       Cu300   2.017       .  S
O295        C304   1.279       .  A
O296       Cu300   2.013       .  S
O296        C303   1.279       .  A
O297       Cu300   2.003       .  S
O297        C302   1.277       .  A
O298       Cu300   2.008       .  S
O298        C301   1.277       .  A
Cu299      Cu300   2.374       .  S
C301        C581   1.478       .  S
C302        C570   1.483       .  S
C303        C574   1.475       .  S
C304        C577   1.471       .  S
N305        N306   1.322   1_565  A
N305        C309   1.347       .  A
N305       Cu313   2.081       .  S
N306        C307   1.344       .  A
N306       Cu312   2.071       .  S
C307        C308   1.381       .  A
C307        H310   1.082       .  S
C308        C594   1.478       .  S
C308        C309   1.387   1_545  A
C309        H311   1.082       .  S
Cu312       N315   2.071       .  S
Cu313       N323   2.081       .  S
Cu314       N316   2.078       .  S
Cu314       N322   2.079   1_545  S
N315        N316   1.322       .  A
N315        C319   1.344       .  A
N316        C317   1.346       .  A
C317        C318   1.387       .  A
C317        H320   1.082       .  S
C318        C573   1.477       .  S
C318        C319   1.381       .  A
C319        H321   1.082       .  S
N322        N323   1.324       .  A
N322        C326   1.347       .  A
N323        C324   1.346       .  A
C324        C325   1.380       .  A
C324        H327   1.082       .  S
C325        C326   1.380       .  A
C325        C568   1.440       .  S
C326        H328   1.082       .  S
N329        N330   1.322       .  A
N329        C333   1.347       .  A
N329       Cu337   2.083       .  S
N330        C331   1.344       .  A
N330       Cu336   2.070       .  S
C331        C332   1.381       .  A
C331        H334   1.082       .  S
C332        C610   1.479       .  S
C332        C333   1.388       .  A
C333        H335   1.082       .  S
Cu336       N339   2.071       .  S
Cu337       N347   2.083   1_545  S
Cu338       N340   2.082       .  S
Cu338       N346   2.083       .  S
N339        N340   1.322   1_545  A
N339        C343   1.343       .  A
N340        C341   1.348       .  A
C341        C342   1.388   1_565  A
C341        H344   1.082       .  S
C342        C590   1.478       .  S
C342        C343   1.381       .  A
C343        H345   1.082       .  S
N346        N347   1.325       .  A
N346        C350   1.346       .  A
N347        C348   1.347       .  A
C348        C349   1.381       .  A
C348        H351   1.082       .  S
C349        C350   1.380       .  A
C349        C566   1.441       .  S
C350        H352   1.082       .  S
N353        N354   1.323       .  A
N353        C357   1.349       .  A
N353       Cu361   2.087       .  S
N354        C355   1.343       .  A
N354       Cu360   2.074       .  S
C355        C356   1.381       .  A
C355        H358   1.083       .  S
C356        C630   1.479       .  S
C356        C357   1.389       .  A
C357        H359   1.081       .  S
Cu360       N363   2.073       .  S
Cu361       N371   2.088       .  S
Cu362       N364   2.078       .  S
Cu362       N370   2.079       .  S
N363        N364   1.321       .  A
N363        C367   1.344       .  A
N364        C365   1.348       .  A
C365        C366   1.387       .  A
C365        H368   1.082       .  S
C366        C605   1.477       .  S
C366        C367   1.382       .  A
C367        H369   1.082       .  S
N370        N371   1.325       .  A
N370        C374   1.345       .  A
N371        C372   1.348       .  A
C372        C373   1.382       .  A
C372        H375   1.082       .  S
C373        C374   1.379       .  A
C373        C564   1.441       .  S
C374        H376   1.082       .  S
N377        N378   1.322       .  A
N377        C381   1.349       .  A
N377       Cu385   2.081       .  S
N378        C379   1.344       .  A
N378       Cu384   2.078       .  S
C379        C380   1.383       .  A
C379        H382   1.082       .  S
C380        C569   1.480       .  S
C380        C381   1.388       .  A
C381        H383   1.082       .  S
Cu384       N387   2.078       .  S
Cu385       N395   2.082       .  S
Cu386       N388   2.091       .  S
Cu386       N394   2.092       .  S
N387        N388   1.323       .  A
N387        C391   1.344       .  A
N388        C389   1.351       .  A
C389        C390   1.390       .  A
C389        H392   1.081       .  S
C390        C626   1.483       .  S
C390        C391   1.382       .  A
C391        H393   1.082       .  S
N394        N395   1.325       .  A
N394        C398   1.348       .  A
N395        C396   1.346       .  A
C396        C397   1.379       .  A
C396        H399   1.082       .  S
C397        C398   1.382       .  A
C397        C561   1.442       .  S
C398        H400   1.082       .  S
N401        N402   1.323   1_565  A
N401        C405   1.344       .  A
N401       Cu409   2.075       .  S
N402        C403   1.349       .  A
N402       Cu408   2.088       .  S
C403        C404   1.388       .  A
C403        H406   1.082       .  S
C404        C658   1.480   1_545  S
C404        C405   1.381   1_545  A
C405        H407   1.082       .  S
Cu408       N411   2.088       .  S
Cu409       N419   2.075       .  S
Cu410       N412   2.079       .  S
Cu410       N418   2.078   1_545  S
N411        N412   1.323       .  A
N411        C415   1.348       .  A
N412        C413   1.345       .  A
C413        C414   1.386       .  A
C413        H416   1.082       .  S
C414        C582   1.483       .  S
C414        C415   1.385       .  A
C415        H417   1.081       .  S
N418        N419   1.323       .  A
N418        C422   1.347       .  A
N419        C420   1.346       .  A
C420        C421   1.380       .  A
C420        H423   1.082       .  S
C421        C422   1.381       .  A
C421        C560   1.440       .  S
C422        H424   1.082       .  S
N425        N426   1.320       .  A
N425        C429   1.346       .  A
N425       Cu433   2.079       .  S
N426        C427   1.343       .  A
N426       Cu432   2.057       .  S
C427        C428   1.379       .  A
C427        H430   1.082       .  S
C428        C618   1.476       .  S
C428        C429   1.389       .  A
C429        H431   1.082       .  S
Cu432       N435   2.057       .  S
Cu433       N443   2.080   1_545  S
Cu434       N436   2.087   1_565  S
Cu434       N442   2.089       .  S
N435        N436   1.322       .  A
N435        C439   1.341       .  A
N436        C437   1.349   1_545  A
C437        C438   1.389   1_565  A
C437        H440   1.082       .  S
C438        C646   1.473       .  S
C438        C439   1.376       .  A
C439        H441   1.083       .  S
N442        N443   1.326       .  A
N442        C446   1.347       .  A
N443        C444   1.346       .  A
C444        C445   1.379       .  A
C444        H447   1.082       .  S
C445        C446   1.381       .  A
C445        C558   1.440       .  S
C446        H448   1.082       .  S
N449        N450   1.323       .  A
N449        C453   1.345       .  A
N449       Cu457   2.072       .  S
N450        C451   1.349       .  A
N450       Cu456   2.094       .  S
C451        C452   1.390       .  A
C451        H454   1.082       .  S
C452        C678   1.483       .  S
C452        C453   1.381       .  A
C453        H455   1.082       .  S
Cu456       N459   2.094       .  S
Cu457       N467   2.072       .  S
Cu458       N460   2.074       .  S
Cu458       N466   2.074       .  S
N459        N460   1.323       .  A
N459        C463   1.348       .  A
N460        C461   1.345       .  A
C461        C462   1.381       .  A
C461        H464   1.082       .  S
C462        C614   1.482       .  S
C462        C463   1.390       .  A
C463        H465   1.082       .  S
N466        N467   1.323       .  A
N466        C470   1.347       .  A
N467        C468   1.345       .  A
C468        C469   1.379       .  A
C468        H471   1.082       .  S
C469        C470   1.381       .  A
C469        C555   1.438       .  S
C470        H472   1.082       .  S
N473        N474   1.320       .  A
N473        C477   1.346       .  A
N473       Cu481   2.070       .  S
N474        C475   1.342       .  A
N474       Cu480   2.063       .  S
C475        C476   1.384       .  A
C475        H478   1.082       .  S
C476        C578   1.476       .  S
C476        C477   1.383       .  A
C477        H479   1.081       .  S
Cu480       N483   2.062       .  S
Cu481       N491   2.071       .  S
Cu482       N484   2.082       .  S
Cu482       N490   2.082       .  S
N483        N484   1.322       .  A
N483        C487   1.343       .  A
N484        C485   1.346       .  A
C485        C486   1.387       .  A
C485        H488   1.082       .  S
C486        C666   1.474       .  S
C486        C487   1.378       .  A
C487        H489   1.082       .  S
N490        N491   1.324       .  A
N490        C494   1.347       .  A
N491        C492   1.344       .  A
C492        C493   1.377       .  A
C492        H495   1.082       .  S
C493        C494   1.381       .  A
C493        C553   1.438       .  S
C494        H496   1.082       .  S
O497       Cu505   2.015   1_655  S
O497        C507   1.277       .  A
O498       Cu505   2.015       .  S
O498        C508   1.277       .  A
O499       Cu505   2.016   1_655  S
O499        C509   1.277       .  A
O500       Cu505   2.016       .  S
O500        C510   1.277       .  A
O501       Cu506   2.017       .  S
O501        C510   1.277       .  A
O502       Cu506   2.014   1_655  S
O502        C509   1.277       .  A
O503       Cu506   2.015       .  S
O503        C508   1.277       .  A
O504       Cu506   2.016   1_655  S
O504        C507   1.277       .  A
Cu505      Cu506   2.378       .  S
C507        C563   1.440       .  S
C508        C567   1.439       .  S
C509        C565   1.439       .  S
C510        C562   1.440       .  S
O511       Cu519   2.011       .  S
O511        C521   1.276       .  A
O512       Cu519   2.014       .  S
O512        C522   1.277       .  A
O513       Cu519   2.020       .  S
O513        C523   1.278       .  A
O514       Cu519   2.016       .  S
O514        C524   1.278       .  A
O515       Cu520   2.006       .  S
O515        C524   1.276       .  A
O516       Cu520   2.008       .  S
O516        C523   1.276       .  A
O517       Cu520   2.014       .  S
O517        C522   1.277       .  A
O518       Cu520   2.012       .  S
O518        C521   1.277       .  A
Cu519      Cu520   2.379       .  S
C521        C556   1.436       .  S
C522        C559   1.439       .  S
C523        C557   1.438       .  S
C524        C554   1.436       .  S
O525       Cu533   2.016       .  S
O525        C535   1.277       .  A
O526       Cu533   2.013       .  S
O526        C536   1.277       .  A
O527       Cu533   2.014       .  S
O527        C537   1.277       .  A
O528       Cu533   2.012       .  S
O528        C538   1.277       .  A
O529       Cu534   2.011       .  S
O529        C538   1.277       .  A
O530       Cu534   2.013       .  S
O530        C537   1.277       .  A
O531       Cu534   2.008       .  S
O531        C536   1.276       .  A
O532       Cu534   2.010       .  S
O532        C535   1.276       .  A
Cu533      Cu534   2.379       .  S
C535        C662   1.438       .  S
C536        C641   1.435       .  S
C537        C664   1.438       .  S
C538        C644   1.436       .  S
O539       Cu547   2.015   1_655  S
O539        C549   1.277       .  A
O540       Cu547   2.016       .  S
O540        C550   1.277       .  A
O541       Cu547   2.014       .  S
O541        C551   1.277       .  A
O542       Cu547   2.017   1_655  S
O542        C552   1.277       .  A
O543       Cu548   2.020   1_655  S
O543        C552   1.278       .  A
O544       Cu548   2.016       .  S
O544        C551   1.277       .  A
O545       Cu548   2.025       .  S
O545        C550   1.278       .  A
O546       Cu548   2.022   1_655  S
O546        C549   1.278       .  A
Cu547      Cu548   2.377       .  S
C549        C586   1.442       .  S
C550        C621   1.444       .  S
C551        C588   1.439       .  S
C552        C624   1.442       .  S
C553        C554   1.206       .  T
C555        C556   1.206       .  T
C557        C558   1.208       .  T
C559        C560   1.208       .  T
C561        C562   1.209       .  T
C563        C564   1.208       .  T
C565        C566   1.208       .  T
C567        C568   1.208       .  T
C569        C570   1.347       .  D
C569        H571   1.087       .  S
C570        H572   1.086       .  S
C573        C574   1.343       .  D
C573        H575   1.086       .  S
C574        H576   1.086       .  S
C577        C578   1.342       .  D
C577        H579   1.085       .  S
C578        H580   1.086       .  S
C581        C582   1.345       .  D
C581        H583   1.085       .  S
C582        H584   1.085       .  S
C585        C586   1.210       .  T
C587        C588   1.208       .  T
C589        C590   1.345   1_565  D
C589        H591   1.086       .  S
C590        H592   1.087       .  S
C593        C594   1.344   1_565  D
C593        H595   1.086       .  S
C594        H596   1.087       .  S
C597        C598   1.344       .  D
C597        H599   1.087       .  S
C598        H600   1.086   1_565  S
C601        C602   1.343       .  D
C601        H603   1.086   1_565  S
C602        H604   1.087       .  S
C605        C606   1.346       .  D
C605        H607   1.087       .  S
C606        H608   1.086       .  S
C609        C610   1.343       .  D
C609        H611   1.086       .  S
C610        H612   1.086       .  S
C613        C614   1.343       .  D
C613        H615   1.085       .  S
C614        H616   1.086       .  S
C617        C618   1.340       .  D
C617        H619   1.086       .  S
C618        H620   1.086       .  S
C621        C622   1.211       .  T
C623        C624   1.210       .  T
C625        C626   1.346       .  D
C625        H627   1.086       .  S
C626        H628   1.087       .  S
C629        C630   1.345       .  D
C629        H631   1.087       .  S
C630        H632   1.087       .  S
C633        C634   1.345       .  D
C633        H635   1.085       .  S
C634        H636   1.086       .  S
C637        C638   1.346       .  D
C637        H639   1.086       .  S
C638        H640   1.086       .  S
C641        C642   1.206       .  T
C643        C644   1.207       .  T
C645        C646   1.341   1_565  D
C645        H647   1.087       .  S
C646        H648   1.087       .  S
C649        C650   1.342   1_545  D
C649        H651   1.087       .  S
C650        H652   1.086       .  S
C653        C654   1.345   1_545  D
C653        H655   1.086       .  S
C654        H656   1.087       .  S
C657        C658   1.344   1_545  D
C657        H659   1.086       .  S
C658        H660   1.086       .  S
C661        C662   1.207       .  T
C663        C664   1.207       .  T
C665        C666   1.341       .  D
C665        H667   1.086       .  S
C666        H668   1.086       .  S
C669        C670   1.346       .  D
C669        H671   1.086       .  S
C670        H672   1.087       .  S
C673        C674   1.343       .  D
C673        H675   1.087       .  S
C674        H676   1.086       .  S
C677        C678   1.344       .  D
C677        H679   1.086       .  S
C678        H680   1.086       .  S
C681        C682   1.343       .  D
C681        H683   1.086       .  S
C682        H684   1.087       .  S
C685        C686   1.345       .  D
C685        H687   1.085       .  S
C686        H688   1.086       .  S
C689        C690   1.344       .  D
C689        H691   1.087       .  S
C690        H692   1.088       .  S
C693        C694   1.345       .  D
C693        H695   1.085       .  S
C694        H696   1.086       .  S
C697        C698   1.344       .  D
C697        H699   1.085       .  S
C698        H700   1.085       .  S
C701        C702   1.344       .  D
C701        H703   1.086       .  S
C702        H704   1.086       .  S
C705        C706   1.345       .  D
C705        H707   1.086       .  S
C706        H708   1.087       .  S
C709        C710   1.343       .  D
C709        H711   1.087       .  S
C710        H712   1.088       .  S
