geometry optimzed in LAMMPS
_audit_creation_date              2020-11-30 
_audit_creation_method            'lammps2cif' 
_symmetry_space_group_name_H-M    'P1' 
_symmetry_Int_Tables_number       1 
_symmetry_cell_setting            triclinic 
loop_ 
_symmetry_equiv_pos_as_xyz 
  x,y,z 
_cell_length_a                    41.90807739 
_cell_length_b                    42.73765661691887 
_cell_length_c                    42.20863643906905 
_cell_angle_alpha                 89.0935912996884 
_cell_angle_beta                  87.97671569669394 
_cell_angle_gamma                 91.47723032811642 
loop_ 
_atom_site_label 
_atom_site_type_symbol 
_atom_site_fract_x 
_atom_site_fract_y 
_atom_site_fract_z 
_atom_site_charge 
C1          C  0.48434911  0.10403079  0.27064843     0.86200
C2          C  0.45350640  0.12249645  0.26899184    -0.54000
C3          C  0.45081549  0.13971412  0.24160372     0.09100
C4          C  0.97957580  0.13561742  0.21776330     0.20100
C5          C  0.48404053  0.08320123  0.24110466    -0.54700
C6          C  0.48159392  0.09924347  0.21283797     0.09300
C7          C  0.01123654  0.12765412  0.26408328    -0.54300
C8          C  0.00917284  0.14428765  0.23698900     0.09800
H9          H  0.43562490  0.12256330  0.28824673     0.14300
H10         H  0.97794389  0.14946957  0.19544011     0.00100
H11         H  0.48664054  0.05808575  0.24213663     0.14600
H12         H  0.03146694  0.13052116  0.27943894     0.14400
O13         O  0.03299167  0.05018856  0.41109514    -0.80400
O14         O  0.37733755  0.46884384  0.47157831    -0.81900
O15         O  0.45502377  0.48277712  0.38350912    -0.79000
O16         O  0.42705040  0.06439622  0.43415685    -0.77400
O17         O  0.43368008  0.08343021  0.48404594    -0.79100
O18         O  0.48770742  0.44239786  0.39508503    -0.80100
O19         O  0.39208649  0.50186323  0.43018979    -0.81400
O20         O  0.48143810  0.04236837  0.39511256    -0.81700
Eu21       Eu  0.45027674  0.01258768  0.43363645     2.39200
O22         O  0.42938408  0.01319878  0.48543478    -0.89200
O23         O  0.50104762  0.49319083  0.43250288    -0.92800
C24         C  0.51007820  0.05308499  0.39119578     1.01900
C25         C  0.37112859  0.48577532  0.44698180     1.01700
C26         C  0.47205573  0.45921824  0.37572265     1.01600
C27         C  0.42443791  0.08555637  0.45535750     0.99500
H28         H  0.43256989  0.44783947  0.43699227     0.29300
O29         O  0.44604399  0.46026613  0.45034715    -1.01600
H30         H  0.48486198  0.06566487  0.45507483     0.29300
O31         O  0.48316789  0.04482063  0.46420833    -1.04100
O32         O  0.42542982  0.43334131  0.05371101    -0.81400
O33         O  0.08311670  0.01581274  0.49502989    -0.80900
O34         O  0.46154888  0.39402051  0.45580339    -0.79300
O35         O  0.40608515  0.04041731  0.04088453    -0.82700
O36         O  0.49784566  0.09309978  0.01116464    -0.80500
O37         O  0.05292848  0.44650117  0.42456388    -0.79200
O38         O  0.03662456  0.42199680  0.03170154    -0.80700
O39         O  0.00593707  0.00986424  0.08498783    -0.82600
O40         O  0.02974101  0.40562397  0.47960152    -0.79400
O41         O  0.47689646  0.05218226  0.07086576    -0.82000
O42         O  0.41751344  0.40708884  0.48583488    -0.77800
O43         O  0.07245566  0.49630100  0.43247391    -0.77800
O44         O  0.04138413  0.07907094  0.48091464    -0.77400
O45         O  0.38730671  0.48980014  0.03153800    -0.80900
O46         O  0.47614652  0.44132307  0.07100324    -0.80400
O47         O  0.06689928  0.48434324  0.03884874    -0.78700
Eu48       Eu  0.42597834  0.46105018  0.00192536     2.39800
Eu49       Eu  0.03488783  0.02500223  0.46430776     2.39600
Eu50       Eu  0.49844430  0.44145644  0.45133368     2.38400
Eu51       Eu  0.46168071  0.04543399  0.01633725     2.39900
Eu52       Eu  0.00963030  0.47377750  0.03633238     2.39800
O53         O  0.01393421  0.02591569  0.01757225    -0.93100
O54         O  0.47779333  0.44213847  0.50393640    -0.92000
C55         C  0.44760687  0.42984982  0.07381978     1.02100
C56         C  0.08945720  0.99908675  0.02056787     1.00800
C57         C  0.43370872  0.38754678  0.46928102     1.00200
C58         C  0.38434640  0.01813247  0.04315392     1.02200
C59         C  0.02576688  0.09920013  0.49724615     1.01100
C60         C  0.07488987  0.46852582  0.42164568     0.99900
C61         C  0.04169925  0.40291364  0.00846930     1.00000
C62         C  0.49272436  0.03639610  0.09087555     1.02600
H63         H  0.05043153  0.46422875  0.48336103     0.30000
O64         O  0.02956099  0.47317533  0.48359171    -1.05300
H65         H  0.44811300  0.49307134  0.05595205     0.32000
O66         O  0.45767959  0.49295745  0.03483326    -1.07800
C67         C  0.21058304  0.04461898  0.12420887     0.86200
C68         C  0.19249460  0.03534463  0.09516091    -0.54000
C69         C  0.20326367  0.00972726  0.08022347     0.09100
C70         C  0.23088859  0.49452901  0.09592290     0.20100
C71         C  0.20837403  0.01502900  0.14587594    -0.54700
C72         C  0.21886625  0.48910936  0.13066740     0.09300
C73         C  0.24581545  0.04694245  0.11327610    -0.54300
C74         C  0.25688774  0.02108738  0.09860097     0.09800
H75         H  0.17174667  0.04781184  0.08741767     0.14300
H76         H  0.23935723  0.47298201  0.08435920     0.00100
H77         H  0.20026409  0.01450372  0.17042066     0.14600
H78         H  0.26048551  0.06803725  0.11583976     0.14400
O79         O  0.14982071  0.19852367  0.26610785    -0.80400
O80         O  0.22558234  0.28808025  0.12486926    -0.81900
O81         O  0.13189224  0.27537559  0.19276883    -0.79000
O82         O  0.17732922  0.19007216  0.16611401    -0.77400
O83         O  0.22624767  0.16909087  0.17424320    -0.79100
O84         O  0.14419719  0.31474901  0.22671423    -0.80100
O85         O  0.18203699  0.25558828  0.13470144    -0.81400
O86         O  0.13716776  0.21034358  0.21496076    -0.81700
Eu87       Eu  0.17866671  0.24148427  0.19080456     2.39200
O88         O  0.23168988  0.23974502  0.17274311    -0.89200
O89         O  0.17523417  0.25720801  0.24394535    -0.92800
C90         C  0.13124599  0.19755420  0.24205927     1.01900
C91         C  0.20079877  0.27231657  0.11614672     1.01700
C92         C  0.12543834  0.30069292  0.20770772     1.01600
C93         C  0.19763692  0.16804656  0.16425515     0.99500
H94         H  0.18828161  0.30650968  0.17922458     0.29300
O95         O  0.19984544  0.29255602  0.19269447    -1.01600
H96         H  0.19598605  0.18577331  0.22367341     0.29300
O97         O  0.20592899  0.20639666  0.22341585    -1.04100
O98         O  0.30767664  0.31403166  0.18008868    -0.81400
O99         O  0.23336850  0.23042182  0.32634667    -0.80900
O100        O  0.20613698  0.35706175  0.21375981    -0.79300
O101        O  0.28597328  0.21160766  0.15023261    -0.82700
O102        O  0.25344937  0.15605735  0.24023021    -0.80500
O103        O  0.16804789  0.30008658  0.29925967    -0.79200
O104        O  0.27774349  0.32435165  0.28528252    -0.80700
O105        O  0.32771620  0.23513958  0.25220253    -0.82600
O106        O  0.22704994  0.34214664  0.27943265    -0.79400
O107        O  0.31402268  0.19682480  0.21758664    -0.82000
O108        O  0.24053187  0.34608962  0.17240518    -0.77800
O109        O  0.16972265  0.24822995  0.31387443    -0.77800
O110        O  0.22042343  0.16876181  0.28200745    -0.77400
O111        O  0.28504593  0.26374384  0.13710278    -0.80900
O112        O  0.32244713  0.30209470  0.23051566    -0.80400
O113        O  0.27959752  0.25855929  0.31446909    -0.78700
Eu114      Eu  0.25357840  0.29081764  0.17540969     2.39800
Eu115      Eu  0.20400747  0.22286465  0.27592636     2.39600
Eu116      Eu  0.19756757  0.30784239  0.24611210     2.38400
Eu117      Eu  0.25909791  0.20419370  0.20442192     2.39900
Eu118      Eu  0.28106359  0.27197541  0.25858114     2.39800
O119        O  0.25795794  0.22103398  0.25760012    -0.93100
O120        O  0.25163557  0.30702910  0.22809371    -0.92000
C121        C  0.32749736  0.31425529  0.20278717     1.02100
C122        C  0.25944058  0.24502770  0.33423202     1.00800
C123        C  0.22308816  0.36502206  0.18844091     1.00200
C124        C  0.29265875  0.23553588  0.13143460     1.02200
C125        C  0.23813150  0.14925993  0.26696112     1.01100
C126        C  0.16156490  0.27652603  0.31861500     0.99900
C127        C  0.25530811  0.34443919  0.29003671     1.00000
C128        C  0.33418602  0.21062038  0.23523849     1.02600
H129        H  0.22635576  0.28141117  0.29743230     0.30000
O130        O  0.22721023  0.27336388  0.27623168    -1.05300
H131        H  0.30341000  0.25434941  0.19765871     0.32000
O132        O  0.28177788  0.25507179  0.20607554    -1.07800
C133        C  0.08945684  0.22364509  0.48890468     0.86200
C134        C  0.11930696  0.22453416  0.00677806    -0.54000
C135        C  0.13839046  0.25060905  0.00174530     0.09100
C136        C  0.12565309  0.27376657  0.47779643     0.20100
C137        C  0.07350978  0.25472739  0.49825940    -0.54700
C138        C  0.09254364  0.28100907  0.49235850     0.09300
C139        C  0.09998551  0.22878606  0.45390441    -0.54300
C140        C  0.11851827  0.25512858  0.44762205     0.09800
H141        H  0.12374332  0.20729200  0.02519544     0.14300
H142        H  0.14156818  0.29459297  0.47364997     0.00100
H143        H  0.04989704  0.25651155  0.50898212     0.14600
H144        H  0.09268134  0.21292615  0.43549830     0.14400
C145        C  0.47946380  0.40099164  0.25423324     0.86200
C146        C  0.51002922  0.38248841  0.24807965    -0.54400
C147        C  0.50828356  0.36238330  0.22367169     0.09100
C148        C  0.47640370  0.36209703  0.20742472     0.20100
C149        C  0.47289749  0.41686548  0.22199636    -0.54700
C150        C  0.47144320  0.39611390  0.19758548     0.09300
C151        C  0.45303336  0.37533700  0.25844089    -0.54300
C152        C  0.45008540  0.35639773  0.23283229     0.09800
H153        H  0.03143626  0.38469939  0.26114533     0.14300
H154        H  0.47528231  0.34499675  0.18795257     0.00100
H155        H  0.46874374  0.44169885  0.21904797     0.14600
H156        H  0.43494617  0.37555829  0.27750912     0.14400
C157        C  0.36914785  0.20521539  0.45909796     0.86200
C158        C  0.34083384  0.21154326  0.43874251    -0.54000
C159        C  0.32385864  0.23692953  0.44708548     0.09100
C160        C  0.33772541  0.25481635  0.47550560     0.20100
C161        C  0.38946217  0.23587872  0.45667920    -0.54700
C162        C  0.37347418  0.26219593  0.46576776     0.09300
C163        C  0.35590328  0.20405470  0.49322392    -0.54300
C164        C  0.33910847  0.22935361  0.50196249     0.09800
H165        H  0.33491948  0.19710568  0.41867315     0.14300
H166        H  0.32377018  0.27537192  0.48275700     0.00100
H167        H  0.41390712  0.23701091  0.44770929     0.14600
H168        H  0.36111786  0.18580744  0.01005170     0.14400
C169        C  0.23756275  0.02529761  0.33242894     0.86200
C170        C  0.25797552  0.02760307  0.36184345    -0.54000
C171        C  0.25408742  0.50195927  0.38255582     0.09100
C172        C  0.23166721  0.47551523  0.37116605     0.20100
C173        C  0.24708337  0.49394008  0.31753731    -0.54700
C174        C  0.24519776  0.46816048  0.33771762     0.09300
C175        C  0.20358103  0.01625243  0.34511256    -0.54300
C176        C  0.19896396  0.48983958  0.36518153     0.09800
H177        H  0.27464275  0.04712486  0.36462614     0.14300
H178        H  0.22974502  0.45516919  0.38777794     0.00100
H179        H  0.25482009  0.49236267  0.29287653     0.14600
H180        H  0.18271559  0.02935181  0.33905861     0.14400
C181        C  0.10679767  0.26049959  0.38949627    -0.21600
C182        C  0.12777876  0.26584779  0.41438932    -0.09600
C183        C  0.15771078  0.28035986  0.40686651     0.29200
C184        C  0.16671044  0.28805862  0.37526558    -0.21600
C185        C  0.14648413  0.28102307  0.35034596    -0.09600
C186        C  0.11618376  0.26743857  0.35785229     0.29300
F187        F  0.09662066  0.25866279  0.33441316    -0.20100
H188        H  0.08340949  0.24978488  0.39435807     0.17600
H189        H  0.19083554  0.29682837  0.36995919     0.17600
F190        F  0.17955984  0.28446617  0.42947740    -0.20100
C191        C  0.19862761  0.24393360  0.06590683    -0.21600
C192        C  0.19325747  0.27161221  0.08248526    -0.09600
C193        C  0.17411368  0.29451267  0.06936121     0.29200
C194        C  0.15886411  0.28881450  0.04094497    -0.21600
C195        C  0.16186700  0.25987893  0.02576030    -0.09600
C196        C  0.18306057  0.23800357  0.03778224     0.29300
F197        F  0.18691668  0.20999166  0.02361334    -0.20100
H198        H  0.21300438  0.22585282  0.07605188     0.17600
H199        H  0.14246147  0.30593439  0.03248050     0.17600
F200        F  0.16762258  0.32090856  0.08558633    -0.20100
C201        C  0.25970845  0.22326094  0.38987916    -0.21600
C202        C  0.26749869  0.24753823  0.36809404    -0.09600
C203        C  0.28635687  0.27326164  0.37811428     0.29200
C204        C  0.30114592  0.27216289  0.40729336    -0.21600
C205        C  0.29710534  0.24568882  0.42700303    -0.09600
C206        C  0.27427590  0.22238932  0.41925222     0.29300
F207        F  0.26927547  0.19676783  0.43837106    -0.20100
H208        H  0.24464276  0.20366377  0.38317330     0.17600
H209        H  0.31850001  0.29033717  0.41274095     0.17600
F210        F  0.29241491  0.29855273  0.35873134    -0.20100
C211        C  0.30022408  0.20635888  0.08098287    -0.21600
C212        C  0.30833038  0.23184027  0.09979789    -0.09600
C213        C  0.32620232  0.25733651  0.08570967     0.29200
C214        C  0.33491491  0.25755322  0.05345445    -0.21600
C215        C  0.32655442  0.23226595  0.03466561    -0.09600
C216        C  0.30920318  0.20652730  0.04869509     0.29300
F217        F  0.30044384  0.18174168  0.03094469    -0.20100
H218        H  0.28570067  0.18701612  0.09088436     0.17600
H219        H  0.34901343  0.27709102  0.04333380     0.17600
F220        F  0.33489103  0.28242095  0.10312631    -0.20100
C221        C  0.23292737  0.41084434  0.34131148    -0.21600
C222        C  0.25239129  0.43542752  0.32841521    -0.09600
C223        C  0.27747376  0.42811736  0.30679738     0.29200
C224        C  0.28139976  0.39706983  0.29693217    -0.21600
C225        C  0.26047738  0.37301323  0.30855142    -0.09600
C226        C  0.23692638  0.38013830  0.33170335     0.29300
F227        F  0.21555890  0.35773643  0.34271675    -0.20100
H228        H  0.21304761  0.41544973  0.35747905     0.17600
H229        H  0.29911559  0.39228293  0.27845304     0.17600
F230        F  0.29754789  0.45094371  0.29449696    -0.20100
C231        C  0.22610480  0.11251025  0.31313512    -0.21600
C232        C  0.24000861  0.11725009  0.28247334    -0.09600
C233        C  0.25428178  0.09128687  0.26791107     0.29200
C234        C  0.25338618  0.06147194  0.28324758    -0.21600
C235        C  0.23867169  0.05683657  0.31373052    -0.09600
C236        C  0.22562281  0.08328847  0.32848377     0.29300
F237        F  0.21207455  0.08097542  0.35817736    -0.20100
H238        H  0.21532766  0.13165942  0.32573888     0.17600
H239        H  0.26465566  0.04234123  0.27121350     0.17600
F240        F  0.26902832  0.09454794  0.23888101    -0.20100
C241        C  0.36280582  0.35812535  0.21288311    -0.21600
C242        C  0.35873516  0.32925182  0.19843807    -0.09600
C243        C  0.38516557  0.31027471  0.19302542     0.29200
C244        C  0.41480191  0.31899973  0.20473341    -0.21600
C245        C  0.41820096  0.34658937  0.22202707    -0.09600
C246        C  0.39222108  0.36689152  0.22453368     0.29300
F247        F  0.39487981  0.39511714  0.23848540    -0.20100
H248        H  0.34243360  0.37267147  0.21769077     0.17600
H249        H  0.43480390  0.30370575  0.20129409     0.17600
F250        F  0.38153888  0.28203805  0.17909576    -0.20100
C251        C  0.06581621  0.29778399  0.20809782    -0.21600
C252        C  0.09449621  0.31528608  0.20354215    -0.09600
C253        C  0.09359478  0.34802390  0.20046497     0.29200
C254        C  0.06484575  0.36318002  0.20476823    -0.21600
C255        C  0.03660449  0.34596451  0.21216263    -0.09600
C256        C  0.03683812  0.31312399  0.21244104     0.29300
F257        F  0.00968938  0.29614820  0.21975983    -0.20100
H258        H  0.06617782  0.27254144  0.21076915     0.17600
H259        H  0.06484988  0.38854093  0.20403262     0.17600
F260        F  0.12089256  0.36544041  0.19521120    -0.20100
C261        C  0.19554824  0.41624482  0.18062763    -0.21600
C262        C  0.22265513  0.39789175  0.17610869    -0.09600
C263        C  0.24885656  0.41057054  0.15774366     0.29200
C264        C  0.24741233  0.44023941  0.14350194    -0.21600
C265        C  0.22006985  0.45818041  0.14728620    -0.09600
C266        C  0.19415565  0.44605842  0.16627851     0.29300
F267        F  0.16690686  0.46233844  0.16971624    -0.20100
H268        H  0.17498214  0.40708064  0.19436005     0.17600
H269        H  0.26785499  0.44926547  0.12945827     0.17600
F270        F  0.27608547  0.39435599  0.15355703    -0.20100
C271        C  0.20215565  0.10100617  0.11231728    -0.21600
C272        C  0.19913795  0.07622802  0.13499250    -0.09600
C273        C  0.18677475  0.08272314  0.16558323     0.29200
C274        C  0.18157964  0.11366023  0.17389165    -0.21600
C275        C  0.18793903  0.13813831  0.15190244    -0.09600
C276        C  0.19652911  0.13164799  0.12064096     0.29300
F277        F  0.20326619  0.15521108  0.09928230    -0.20100
H278        H  0.21092131  0.09676326  0.08834280     0.17600
H279        H  0.17566931  0.11877904  0.19843764     0.17600
F280        F  0.18155809  0.06025393  0.18822586    -0.20100
C281        C  0.46579974  0.39089952  0.10971021    -0.21600
C282        C  0.44198286  0.41224260  0.10325664    -0.09600
C283        C  0.42545530  0.42646712  0.12848791     0.29200
C284        C  0.43502190  0.42152035  0.15960482    -0.21600
C285        C  0.46167667  0.40322537  0.16527729    -0.09600
C286        C  0.47693960  0.38799282  0.14003565     0.29300
F287        F  0.00457835  0.37320375  0.14433788    -0.20100
H288        H  0.47944772  0.38061659  0.09040033     0.17600
H289        H  0.42239739  0.43266891  0.17901908     0.17600
F290        F  0.40267958  0.44763937  0.12271400    -0.20100
C291        C  0.44870193  0.45067119  0.32277358    -0.21600
C292        C  0.47505743  0.45084792  0.34221983    -0.09600
C293        C  0.50465816  0.44128335  0.32988129     0.29200
C294        C  0.50699106  0.42823291  0.30002065    -0.21600
C295        C  0.47958909  0.42332091  0.28215316    -0.09600
C296        C  0.45097875  0.43727659  0.29276009     0.29300
F297        F  0.42461571  0.43613672  0.27507919    -0.20100
H298        H  0.42595041  0.45916355  0.33148375     0.17600
H299        H  0.53040377  0.42142209  0.29200508     0.17600
F300        F  0.53133565  0.44373745  0.34713613    -0.20100
C301        C  0.10998862  0.46896685  0.37305734    -0.21600
C302        C  0.10605378  0.46284264  0.40568015    -0.09600
C303        C  0.13340061  0.46152856  0.42408634     0.29200
C304        C  0.16389250  0.46819426  0.41038417    -0.21600
C305        C  0.16757921  0.47689978  0.37822641    -0.09600
C306        C  0.14041065  0.47570267  0.35933928     0.29300
F307        F  0.14302727  0.48231950  0.32778501    -0.20100
H308        H  0.08926523  0.47090737  0.35859991     0.17600
H309        H  0.18428764  0.46884388  0.42544262     0.17600
F310        F  0.13025972  0.45663841  0.45592245    -0.20100
C311        C  0.32475401  0.51814344  0.43469269    -0.21600
C312        C  0.33775657  0.48833157  0.43726324    -0.09600
C313        C  0.32025902  0.46237468  0.42670405     0.29200
C314        C  0.29178471  0.46668054  0.41081799    -0.21600
C315        C  0.27982301  0.49690958  0.40590655    -0.09600
C316        C  0.29577349  0.52240958  0.41994718     0.29300
F317        F  0.28407958  0.55170831  0.41864426    -0.20100
H318        H  0.33762254  0.53839219  0.44340105     0.17600
H319        H  0.28051480  0.44638498  0.40055610     0.17600
F320        F  0.33199676  0.43319780  0.42935618    -0.20100
C321        C  0.14597142  0.51557218  0.01649686    -0.21600
C322        C  0.12333309  0.99591539  0.02878727    -0.09600
C323        C  0.13257977  0.97178061  0.04955469     0.29200
C324        C  0.16298419  0.97255095  0.06208035    -0.21600
C325        C  0.18428977  0.99740477  0.05433500    -0.09600
C326        C  0.17652872  0.51592704  0.02867145     0.29300
F327        F  0.19770687  0.53905506  0.01913712    -0.20100
H328        H  0.14039812  0.53303457  0.99880250     0.17600
H329        H  0.16813105  0.95625718  0.08104825     0.17600
F330        F  0.11163451  0.94864987  0.05958359    -0.20100
C331        C  0.32591196  0.01189320  0.03961760    -0.21600
C332        C  0.35198809  0.02374723  0.05631928    -0.09600
C333        C  0.34663046  0.03499685  0.08698621     0.29200
C334        C  0.31567468  0.03369202  0.10082853    -0.21600
C335        C  0.28977137  0.02092266  0.08436734    -0.09600
C336        C  0.29516105  0.01040612  0.05342121     0.29300
F337        F  0.27068490  0.99929397  0.03622609    -0.20100
H338        H  0.32959992  0.00293159  0.01592157     0.17600
H339        H  0.31200544  0.04207216  0.12472982     0.17600
F340        F  0.37141350  0.04545260  0.10412880    -0.20100
C341        C  0.37728826  0.11740973  0.45237529    -0.21600
C342        C  0.41000522  0.11477157  0.44686318    -0.09600
C343        C  0.42938467  0.14151410  0.44055208     0.29200
C344        C  0.41633410  0.17116694  0.44247518    -0.21600
C345        C  0.38377978  0.17420180  0.45084844    -0.09600
C346        C  0.36412295  0.14678620  0.45418767     0.29300
F347        F  0.33245644  0.14839970  0.46187202    -0.20100
H348        H  0.36231454  0.09678325  0.45762006     0.17600
H349        H  0.43257773  0.19104926  0.93723584     0.17600
F350        F  0.46120948  0.13851570  0.93243956    -0.20100
C351        C  0.43705549  0.32876505  0.47028289    -0.21600
C352        C  0.41889054  0.35555297  0.46631036    -0.09600
C353        C  0.38572936  0.35147697  0.46247913     0.29200
C354        C  0.37137858  0.32137888  0.46205207    -0.21600
C355        C  0.38939954  0.29437565  0.46621291    -0.09600
C356        C  0.42259566  0.29866726  0.47089422     0.29300
F357        F  0.44112684  0.27407745  0.47774257    -0.20100
H358        H  0.46237213  0.33119060  0.47435748     0.17600
H359        H  0.34603558  0.31938710  0.45821380     0.17600
F360        F  0.36709395  0.37670087  0.45880737    -0.20100
C361        C  0.02344132  0.15797113  0.50453535    -0.21600
C362        C  0.04124017  0.13105050  0.49888925    -0.09600
C363        C  0.07426988  0.13498968  0.49202991     0.29200
C364        C  0.08850419  0.16477783  0.48915055    -0.21600
C365        C  0.07102361  0.19207953  0.49411166    -0.09600
C366        C  0.03795087  0.18814366  0.50227946     0.29300
F367        F  0.01882931  0.21283617  0.50665009    -0.20100
H368        H  0.49765340  0.15605899  0.50995927     0.17600
H369        H  0.11375977  0.16651008  0.48274844     0.17600
F370        F  0.09317344  0.10995149  0.48778618    -0.20100
C371        C  0.08240110  0.36882132  0.48557406    -0.21600
C372        C  0.06114907  0.37493949  0.01200273    -0.09600
C373        C  0.05113228  0.34995941  0.03220032     0.29200
C374        C  0.06197552  0.31966048  0.02637619    -0.21600
C375        C  0.08271571  0.31351458  0.49969555    -0.09600
C376        C  0.09308878  0.33880109  0.47979904     0.29300
F377        F  0.11115703  0.33442416  0.45299172    -0.20100
H378        H  0.08919557  0.38739277  0.46866531     0.17600
H379        H  0.05341605  0.30061362  0.04188385     0.17600
F380        F  0.02885206  0.35430150  0.05569671    -0.20100
C381        C  0.00186692  0.09715149  0.15578023    -0.21600
C382        C  0.48450571  0.08292199  0.18137327    -0.09600
C383        C  0.47167803  0.05231444  0.17736830     0.29200
C384        C  0.47679587  0.03625199  0.14880873    -0.21600
C385        C  0.49396081  0.05045166  0.12304567    -0.09600
C386        C  0.00607037  0.08129455  0.12692990     0.29300
F387        F  0.02179628  0.09628904  0.10219794    -0.20100
H388        H  0.01239408  0.12039568  0.15788113     0.17600
H389        H  0.46575110  0.01327724  0.14621490     0.17600
F390        F  0.45261543  0.03842563  0.20043528    -0.20100
C391        C  0.00841471  0.06142028  0.30502399    -0.21600
C392        C  0.49134725  0.08961630  0.30270192    -0.09600
C393        C  0.48938452  0.10869644  0.32981232     0.29200
C394        C  0.50115304  0.09861081  0.35851481    -0.21600
C395        C  0.51528522  0.06950195  0.36108138    -0.09600
C396        C  0.02024768  0.05135731  0.33386995     0.29300
F397        F  0.03384362  0.02292193  0.33580612    -0.20100
H398        H  0.01293274  0.04717354  0.28455608     0.17600
H399        H  0.49683636  0.11245031  0.37946814     0.17600
F400        F  0.47673594  0.13759737  0.32847260    -0.20100
C401        C  0.38610780  0.19867403  0.26145528    -0.21600
C402        C  0.36657478  0.19633805  0.23523334    -0.09600
C403        C  0.37727103  0.17790069  0.20941609     0.29200
C404        C  0.40551289  0.16097953  0.21084568    -0.21600
C405        C  0.42377177  0.16167572  0.23795144    -0.09600
C406        C  0.41428477  0.18154206  0.26288653     0.29300
F407        F  0.43214514  0.18411984  0.28895659    -0.20100
H408        H  0.37895697  0.21278382  0.28144054     0.17600
H409        H  0.41233980  0.14618136  0.19126922     0.17600
F410        F  0.36012594  0.17563874  0.18279519    -0.20100
C411        C  0.06299446  0.14934252  0.21467112    -0.21600
C412        C  0.03698751  0.16449985  0.22871253    -0.09600
C413        C  0.04285758  0.18992802  0.24877205     0.29200
C414        C  0.07408874  0.19854048  0.25615357    -0.21600
C415        C  0.09990611  0.18198132  0.24371400    -0.09600
C416        C  0.09411785  0.15766208  0.22240874     0.29300
F417        F  0.11877232  0.14216555  0.20881050    -0.20100
H418        H  0.05905214  0.12888035  0.20032462     0.17600
H419        H  0.07818926  0.21862113  0.27097822     0.17600
F420        F  0.01818689  0.20418129  0.26383941    -0.20100
C421        C  0.48539569  0.10380695  0.77119123     0.86200
C422        C  0.45388498  0.12120566  0.76955110    -0.54000
C423        C  0.45062575  0.13829099  0.74216996     0.09100
C424        C  0.97931150  0.13488406  0.71809878     0.20100
C425        C  0.48586576  0.08299235  0.74163090    -0.54700
C426        C  0.48280375  0.09890199  0.71338193     0.09300
C427        C  0.01102699  0.12837074  0.76460786    -0.54300
C428        C  0.00849549  0.14474156  0.73739389     0.09800
H429        H  0.43604673  0.12081497  0.78886110     0.14300
H430        H  0.97719116  0.14863139  0.69578016     0.00100
H431        H  0.48933814  0.05800935  0.74265902     0.14600
H432        H  0.03115247  0.13191334  0.77996419     0.14400
O433        O  0.03322109  0.05055746  0.91202388    -0.80400
O434        O  0.37898735  0.46639478  0.96745281    -0.81900
O435        O  0.45858537  0.48373871  0.88316475    -0.79000
O436        O  0.42777052  0.06455681  0.93405190    -0.77400
O437        O  0.43383163  0.08305492  0.98423963    -0.79100
O438        O  0.48986509  0.44236475  0.89499327    -0.80100
O439        O  0.39627461  0.49732129  0.92543597    -0.81400
O440        O  0.48225726  0.04239219  0.89537370    -0.81700
Eu441      Eu  0.45049163  0.01248275  0.93352694     2.39200
O442        O  0.42959412  0.01293050  0.98536298    -0.89200
O443        O  0.50295862  0.49346087  0.93274913    -0.92800
C444        C  0.51093669  0.05312755  0.89168926     1.01900
C445        C  0.37465996  0.48079466  0.94074963     1.01700
C446        C  0.47489874  0.45968782  0.87551821     1.01600
C447        C  0.42490411  0.08548846  0.95546692     0.99500
H448        H  0.43485627  0.44802062  0.93617192     0.29300
O449        O  0.44783468  0.46048220  0.94994828    -1.01600
H450        H  0.48520259  0.06525427  0.95521433     0.29300
O451        O  0.48343393  0.04439289  0.96429489    -1.04100
O452        O  0.42651561  0.43362781  0.55482037    -0.81400
O453        O  0.08302375  0.01542190  0.99563316    -0.80900
O454        O  0.46326775  0.39413962  0.95517196    -0.79300
O455        O  0.40576942  0.04085610  0.54058711    -0.82700
O456        O  0.49775320  0.09340712  0.51164380    -0.80500
O457        O  0.05461613  0.44743617  0.92463607    -0.79200
O458        O  0.03651841  0.42175481  0.53058646    -0.80700
O459        O  0.00653639  0.01068306  0.58455548    -0.82600
O460        O  0.03120978  0.40611335  0.98045274    -0.79400
O461        O  0.47695674  0.05272655  0.57087268    -0.82000
O462        O  0.41891988  0.40697451  0.98490401    -0.77800
O463        O  0.07354036  0.49744275  0.93260997    -0.77800
O464        O  0.04080384  0.07892962  0.98143180    -0.77400
O465        O  0.38725651  0.48937334  0.53304009    -0.80900
O466        O  0.47751813  0.44147304  0.57141870    -0.80400
O467        O  0.06734616  0.48439276  0.53738446    -0.78700
Eu468      Eu  0.42577700  0.46104665  0.50297053     2.39800
Eu469      Eu  0.03481955  0.02478770  0.96493398     2.39600
Eu470      Eu  0.50000865  0.44168196  0.95138109     2.38400
Eu471      Eu  0.46144577  0.04587817  0.51631575     2.39900
Eu472      Eu  0.00992093  0.47376874  0.53611434     2.39800
O473        O  0.01405721  0.02650556  0.51694809    -0.93100
O474        O  0.47807302  0.44207177  0.00355367    -0.92000
C475        C  0.44899159  0.43005756  0.57457981     1.02100
C476        C  0.08944674  0.99976961  0.52018484     1.00800
C477        C  0.43534792  0.38756246  0.96842484     1.00200
C478        C  0.38404898  0.01855334  0.54276979     1.02200
C479        C  0.02504827  0.09914818  0.99749587     1.01100
C480        C  0.07620448  0.46979076  0.92152186     0.99900
C481        C  0.04088793  0.40249891  0.50734615     1.00000
C482        C  0.49299797  0.03701302  0.59079394     1.02600
H483        H  0.05142290  0.46450977  0.98415569     0.30000
O484        O  0.03050436  0.47334506  0.98416957    -1.05300
H485        H  0.44855241  0.49355236  0.55633561     0.32000
O486        O  0.45784760  0.49334128  0.53510935    -1.07800
C487        C  0.21013718  0.04478885  0.62419606     0.86200
C488        C  0.19177478  0.03520246  0.59544374    -0.54000
C489        C  0.20279552  0.00979051  0.58035346     0.09100
C490        C  0.23051216  0.49369422  0.59415127     0.20100
C491        C  0.20871201  0.01526638  0.64592283    -0.54700
C492        C  0.21753716  0.48834207  0.62868240     0.09300
C493        C  0.24521036  0.04761352  0.61277311    -0.54300
C494        C  0.25649600  0.02188513  0.59800377     0.09800
H495        H  0.17081475  0.04743247  0.58786485     0.14300
H496        H  0.23880846  0.47220582  0.58231477     0.00100
H497        H  0.20105597  0.01475357  0.67059138     0.14600
H498        H  0.25958513  0.06892557  0.61514523     0.14400
O499        O  0.14924966  0.19870286  0.76520147    -0.80400
O500        O  0.22688839  0.28793859  0.62461858    -0.81900
O501        O  0.13266944  0.27558744  0.69188554    -0.79000
O502        O  0.17693568  0.19011312  0.66581383    -0.77400
O503        O  0.22534617  0.16842975  0.67470212    -0.79100
O504        O  0.14483875  0.31454233  0.72634867    -0.80100
O505        O  0.18310082  0.25571032  0.63417994    -0.81400
O506        O  0.13693515  0.21091165  0.71402864    -0.81700
Eu507      Eu  0.17906638  0.24147922  0.69035084     2.39200
O508        O  0.23205417  0.23930957  0.67251444    -0.89200
O509        O  0.17553930  0.25709538  0.74355836    -0.92800
C510        C  0.13076145  0.19804252  0.74103826     1.01900
C511        C  0.20207136  0.27236104  0.61573524     1.01700
C512        C  0.12619244  0.30073139  0.70705306     1.01600
C513        C  0.19683653  0.16773250  0.66444190     0.99500
H514        H  0.18915688  0.30634686  0.67900174     0.29300
O515        O  0.20059452  0.29234086  0.69252713    -1.01600
H516        H  0.19544242  0.18556072  0.72355847     0.29300
O517        O  0.20559832  0.20608551  0.72329091    -1.04100
O518        O  0.30848209  0.31320771  0.68036687    -0.81400
O519        O  0.23291405  0.23000330  0.82655351    -0.80900
O520        O  0.20621936  0.35675366  0.71340549    -0.79300
O521        O  0.28532258  0.21014685  0.65024567    -0.82700
O522        O  0.25340272  0.15548085  0.74020551    -0.80500
O523        O  0.16844608  0.29997755  0.79911448    -0.79200
O524        O  0.27907800  0.32356078  0.78471217    -0.80700
O525        O  0.32742006  0.23348651  0.75250242    -0.82600
O526        O  0.22863899  0.34188203  0.77855244    -0.79400
O527        O  0.31351275  0.19546608  0.71766675    -0.82000
O528        O  0.24071877  0.34550604  0.67224563    -0.77800
O529        O  0.16926350  0.24802225  0.81359468    -0.77800
O530        O  0.22028373  0.16825143  0.78189628    -0.77400
O531        O  0.28526006  0.26234138  0.63712376    -0.80900
O532        O  0.32294436  0.30075369  0.73076827    -0.80400
O533        O  0.27935831  0.25778210  0.81462244    -0.78700
Eu534      Eu  0.25433896  0.29023271  0.67538712     2.39800
Eu535      Eu  0.20366628  0.22245396  0.77585551     2.39600
Eu536      Eu  0.19814101  0.30758625  0.74596889     2.38400
Eu537      Eu  0.25874826  0.20345315  0.70444782     2.39900
Eu538      Eu  0.28125719  0.27090392  0.75864098     2.39800
O539        O  0.25760473  0.22023199  0.75762043    -0.93100
O540        O  0.25223115  0.30624901  0.72811089    -0.92000
C541        C  0.32816868  0.31316717  0.70317925     1.02100
C542        C  0.25909269  0.24448455  0.83443945     1.00800
C543        C  0.22307943  0.36455064  0.68797439     1.00200
C544        C  0.29232027  0.23396418  0.63145298     1.02200
C545        C  0.23814688  0.14876623  0.76695077     1.01100
C546        C  0.16152215  0.27643622  0.81839099     0.99900
C547        C  0.25695088  0.34401524  0.78907531     1.00000
C548        C  0.33369955  0.20893881  0.73551625     1.02600
H549        H  0.22652656  0.28094013  0.79738538     0.30000
O550        O  0.22735770  0.27281445  0.77621599    -1.05300
H551        H  0.30370870  0.25317736  0.69775833     0.32000
O552        O  0.28206355  0.25410565  0.70610348    -1.07800
C553        C  0.08831739  0.22394718  0.98832278     0.86200
C554        C  0.12061687  0.22454733  0.50709617    -0.54000
C555        C  0.13946347  0.25074593  0.50175689     0.09100
C556        C  0.12501268  0.27381941  0.97770588     0.20100
C557        C  0.07253334  0.25513069  0.99764333    -0.54700
C558        C  0.09187537  0.28130158  0.99209156     0.09300
C559        C  0.09913285  0.22918026  0.95341339    -0.54300
C560        C  0.11792460  0.25538427  0.94737013     0.09800
H561        H  0.12540207  0.20741438  0.52551042     0.14300
H562        H  0.14124282  0.29443121  0.97372741     0.00100
H563        H  0.04881315  0.25703423  0.00807942     0.14600
H564        H  0.09180756  0.21349193  0.93486704     0.14400
C565        C  0.48032095  0.39967136  0.75502864     0.86200
C566        C  0.51077200  0.38113182  0.74863627    -0.54400
C567        C  0.50883234  0.36109430  0.72417282     0.09100
C568        C  0.47675729  0.36070190  0.70832389     0.20100
C569        C  0.47345806  0.41545841  0.72283599    -0.54700
C570        C  0.47174629  0.39467585  0.69848674     0.09300
C571        C  0.45391725  0.37403300  0.75958111    -0.54300
C572        C  0.45069599  0.35502752  0.73402762     0.09800
H573        H  0.03232574  0.38352479  0.76144599     0.14300
H574        H  0.47545311  0.34362150  0.68885835     0.00100
H575        H  0.46949355  0.44032191  0.71984277     0.14600
H576        H  0.43607999  0.37428641  0.77887512     0.14400
C577        C  0.37015330  0.20555338  0.95936123     0.86200
C578        C  0.34172043  0.21159123  0.93904250    -0.54000
C579        C  0.32485690  0.23718248  0.94694564     0.09100
C580        C  0.33888962  0.25545733  0.97507840     0.20100
C581        C  0.39054911  0.23609612  0.95638108    -0.54700
C582        C  0.37467293  0.26257275  0.96515694     0.09300
C583        C  0.35715808  0.20501663  0.99356638    -0.54300
C584        C  0.34029746  0.23038580  0.00196008     0.09800
H585        H  0.33565668  0.19678151  0.91929722     0.14300
H586        H  0.32502406  0.27616461  0.98203669     0.00100
H587        H  0.41503363  0.23699012  0.94750406     0.14600
H588        H  0.35969841  0.18456076  0.50941523     0.14400
C589        C  0.23831971  0.02516467  0.83282034     0.86200
C590        C  0.25853447  0.02755678  0.86231244    -0.54000
C591        C  0.25595433  0.50032632  0.87987460     0.09100
C592        C  0.23225412  0.47521936  0.86868001     0.20100
C593        C  0.24714754  0.49412267  0.81518910    -0.54700
C594        C  0.24482624  0.46800537  0.83492658     0.09300
C595        C  0.20424274  0.01643305  0.84535202    -0.54300
C596        C  0.20005462  0.49104252  0.86375748     0.09800
H597        H  0.27531367  0.04700512  0.86494846     0.14300
H598        H  0.23041044  0.45480169  0.88524434     0.00100
H599        H  0.25491894  0.49277988  0.79053620     0.14600
H600        H  0.18357274  0.02974517  0.83913272     0.14400
C601        C  0.10634261  0.26131600  0.88924730    -0.21600
C602        C  0.12739844  0.26615794  0.91418608    -0.09600
C603        C  0.15761420  0.28008070  0.90671951     0.29200
C604        C  0.16681653  0.28763531  0.87512450    -0.21600
C605        C  0.14648774  0.28108064  0.85014893    -0.09600
C606        C  0.11589387  0.26813727  0.85761035     0.29300
F607        F  0.09612694  0.25989866  0.83414849    -0.20100
H608        H  0.08274245  0.25106300  0.89407388     0.17600
H609        H  0.19111392  0.29592847  0.86986678     0.17600
F610        F  0.17948201  0.28372689  0.92938586    -0.20100
C611        C  0.20049611  0.24449913  0.56512251    -0.21600
C612        C  0.19469806  0.27190335  0.58202575    -0.09600
C613        C  0.17526109  0.29469102  0.56914019     0.29200
C614        C  0.15994991  0.28902507  0.54076541    -0.21600
C615        C  0.16322330  0.26024041  0.52537956    -0.09600
C616        C  0.18488888  0.23861036  0.53700390     0.29300
F617        F  0.18910833  0.21081753  0.52250324    -0.20100
H618        H  0.21517599  0.22653840  0.57503901     0.17600
H619        H  0.14322641  0.30596455  0.53255093     0.17600
F620        F  0.16851151  0.32088500  0.58559246    -0.20100
C621        C  0.26004178  0.22289537  0.89024090    -0.21600
C622        C  0.26729150  0.24718944  0.86831528    -0.09600
C623        C  0.28611603  0.27306502  0.87807529     0.29200
C624        C  0.30150205  0.27206901  0.90697247    -0.21600
C625        C  0.29794022  0.24562307  0.92679987    -0.09600
C626        C  0.27508452  0.22219807  0.91940834     0.29300
F627        F  0.27036008  0.19670656  0.93875277    -0.20100
H628        H  0.24501576  0.20317846  0.88378287     0.17600
H629        H  0.31879720  0.29039082  0.91214267     0.17600
F630        F  0.29153993  0.29843490  0.85864945    -0.20100
C631        C  0.29813853  0.20539534  0.58048953    -0.21600
C632        C  0.30779872  0.22994721  0.59985257    -0.09600
C633        C  0.32709269  0.25470410  0.58636002     0.29200
C634        C  0.33559617  0.25528848  0.55408042    -0.21600
C635        C  0.32563241  0.23102052  0.53471527    -0.09600
C636        C  0.30702601  0.20584464  0.54816997     0.29300
F637        F  0.29700447  0.18195330  0.52984567    -0.20100
H638        H  0.28254514  0.18666349  0.59001297     0.17600
H639        H  0.35074287  0.27427487  0.54435786     0.17600
F640        F  0.33730702  0.27875232  0.60441766    -0.20100
C641        C  0.23430535  0.41040627  0.83963292    -0.21600
C642        C  0.25255392  0.43534654  0.82568865    -0.09600
C643        C  0.27754054  0.42834100  0.80382207     0.29200
C644        C  0.28220140  0.39722850  0.79446648    -0.21600
C645        C  0.26241912  0.37276403  0.80719450    -0.09600
C646        C  0.23939545  0.37961213  0.83090804     0.29300
F647        F  0.21938082  0.35667039  0.84324347    -0.20100
H648        H  0.21459386  0.41465494  0.85611456     0.17600
H649        H  0.29957512  0.39260231  0.77562063     0.17600
F650        F  0.29688843  0.45144891  0.79091553    -0.20100
C651        C  0.22720412  0.11235812  0.81352189    -0.21600
C652        C  0.24042173  0.11688329  0.78258680    -0.09600
C653        C  0.25442980  0.09083417  0.76788147     0.29200
C654        C  0.25375067  0.06107964  0.78333291    -0.21600
C655        C  0.23957943  0.05664376  0.81406126    -0.09600
C656        C  0.22695198  0.08321419  0.82896774     0.29300
F657        F  0.21397191  0.08106175  0.85890055    -0.20100
H658        H  0.21675022  0.13160723  0.82623637     0.17600
H659        H  0.26464557  0.04182121  0.77116259     0.17600
F660        F  0.26862478  0.09392991  0.73857971    -0.20100
C661        C  0.36328171  0.35672365  0.71463610    -0.21600
C662        C  0.35936295  0.32831896  0.69925467    -0.09600
C663        C  0.38586849  0.30959702  0.69331672     0.29200
C664        C  0.41541064  0.31800201  0.70544103    -0.21600
C665        C  0.41872033  0.34515090  0.72347603    -0.09600
C666        C  0.39262968  0.36525235  0.72657309     0.29300
F667        F  0.39513254  0.39312495  0.74123247    -0.20100
H668        H  0.34283932  0.37105962  0.71984952     0.17600
H669        H  0.43547169  0.30287598  0.70153356     0.17600
F670        F  0.38244223  0.28193030  0.67825408    -0.20100
C671        C  0.06668945  0.29737615  0.70634632    -0.21600
C672        C  0.09525658  0.31524418  0.70292709    -0.09600
C673        C  0.09411921  0.34801914  0.70102504     0.29200
C674        C  0.06522149  0.36275978  0.70562360    -0.21600
C675        C  0.03709404  0.34509132  0.71224430    -0.09600
C676        C  0.03754329  0.31230766  0.71102570     0.29300
F677        F  0.01045619  0.29487565  0.71725401    -0.20100
H678        H  0.06724203  0.27207064  0.70796987     0.17600
H679        H  0.06502829  0.38811080  0.70583680     0.17600
F680        F  0.12129833  0.36581428  0.69673753    -0.20100
C681        C  0.19577162  0.41624458  0.68096774    -0.21600
C682        C  0.22225204  0.39730411  0.67507866    -0.09600
C683        C  0.24745591  0.40935744  0.65496930     0.29200
C684        C  0.24565780  0.43889360  0.64051831    -0.21600
C685        C  0.21889966  0.45743405  0.64560784    -0.09600
C686        C  0.19399615  0.44595969  0.66634112     0.29300
F687        F  0.16731819  0.46277532  0.67139032    -0.20100
H688        H  0.17594652  0.40765515  0.69610032     0.17600
H689        H  0.26550778  0.44735935  0.62533255     0.17600
F690        F  0.27413658  0.39268786  0.64924254    -0.20100
C691        C  0.20085848  0.10098162  0.61238621    -0.21600
C692        C  0.19832531  0.07619990  0.63507650    -0.09600
C693        C  0.18600455  0.08251902  0.66572508     0.29200
C694        C  0.18065287  0.11339725  0.67412766    -0.21600
C695        C  0.18680593  0.13792948  0.65215033    -0.09600
C696        C  0.19506139  0.13154695  0.62079640     0.29300
F697        F  0.20150740  0.15517765  0.59944456    -0.20100
H698        H  0.20946192  0.09683186  0.58833858     0.17600
H699        H  0.17481834  0.11845012  0.69870871     0.17600
F700        F  0.18090947  0.05994457  0.68828593    -0.20100
C701        C  0.46706387  0.39075376  0.61034012    -0.21600
C702        C  0.44359456  0.41249769  0.60403557    -0.09600
C703        C  0.42707801  0.42663223  0.62930178     0.29200
C704        C  0.43614100  0.42097020  0.66043819    -0.21600
C705        C  0.46224392  0.40195711  0.66613997    -0.09600
C706        C  0.47750514  0.38679271  0.64082161     0.29300
F707        F  0.00373841  0.36990650  0.64493648    -0.20100
H708        H  0.48074830  0.38059638  0.59098556     0.17600
H709        H  0.42359063  0.43215440  0.67987627     0.17600
F710        F  0.40487798  0.44841047  0.62360554    -0.20100
C711        C  0.45076235  0.45046796  0.82318669    -0.21600
C712        C  0.47751639  0.45115107  0.84209181    -0.09600
C713        C  0.50692375  0.44147924  0.82945802     0.29200
C714        C  0.50868427  0.42764530  0.79993474    -0.21600
C715        C  0.48090531  0.42226219  0.78270893    -0.09600
C716        C  0.45248630  0.43643672  0.79347724     0.29300
F717        F  0.42582189  0.43500177  0.77624862    -0.20100
H718        H  0.42813266  0.45903449  0.83215138     0.17600
H719        H  0.53197273  0.42074003  0.79163175     0.17600
F720        F  0.53392731  0.44460122  0.84613299    -0.20100
C721        C  0.11055945  0.47299771  0.87251775    -0.21600
C722        C  0.10705995  0.46469669  0.90471964    -0.09600
C723        C  0.13466489  0.46147650  0.92243419     0.29200
C724        C  0.16508073  0.46818754  0.90853713    -0.21600
C725        C  0.16843196  0.47880684  0.87690016    -0.09600
C726        C  0.14087771  0.47970473  0.85859218     0.29300
F727        F  0.14306371  0.48812565  0.82743241    -0.20100
H728        H  0.08963122  0.47644512  0.85865893     0.17600
H729        H  0.18576519  0.46720152  0.92315637     0.17600
F730        F  0.13194651  0.45451994  0.95392778    -0.20100
C731        C  0.31437603  0.48100084  0.94409089    -0.21600
C732        C  0.34308663  0.47956948  0.92589668    -0.09600
C733        C  0.34189975  0.48179627  0.89259211     0.29200
C734        C  0.31324929  0.48756055  0.87817308    -0.21600
C735        C  0.28505925  0.49135004  0.89639600    -0.09600
C736        C  0.28545903  0.48702834  0.92942939     0.29300
F737        F  0.25834718  0.49014571  0.94750431    -0.20100
H738        H  0.31455716  0.47912050  0.96962565     0.17600
H739        H  0.31321228  0.48997262  0.85257192     0.17600
F740        F  0.36874606  0.47945509  0.87386491    -0.20100
C741        C  0.14604515  0.51606742  0.51435303    -0.21600
C742        C  0.12325072  0.99651157  0.52852246    -0.09600
C743        C  0.13231262  0.97224591  0.54922614     0.29200
C744        C  0.16268138  0.97278233  0.56179920    -0.21600
C745        C  0.18409541  0.99758580  0.55424880    -0.09600
C746        C  0.17665900  0.51657273  0.52642638     0.29300
F747        F  0.19766202  0.53988204  0.51697133    -0.20100
H748        H  0.14021464  0.53366254  0.49689204     0.17600
H749        H  0.16769276  0.95638237  0.58071837     0.17600
F750        F  0.11120891  0.94921803  0.55917275    -0.20100
C751        C  0.32568132  0.01116517  0.53952115    -0.21600
C752        C  0.35158834  0.02418626  0.55565794    -0.09600
C753        C  0.34599921  0.03712341  0.58554901     0.29200
C754        C  0.31505092  0.03601166  0.59938699    -0.21600
C755        C  0.28933650  0.02196330  0.58360660    -0.09600
C756        C  0.29491560  0.01001107  0.55325277     0.29300
F757        F  0.27063175  0.99778511  0.53651746    -0.20100
H758        H  0.32949940  0.00109767  0.51632360     0.17600
H759        H  0.31129172  0.04550696  0.62281920     0.17600
F760        F  0.37057085  0.04908637  0.60204153    -0.20100
C761        C  0.37791524  0.11760188  0.95423909    -0.21600
C762        C  0.41035789  0.11472362  0.94723548    -0.09600
C763        C  0.42960591  0.14131110  0.93973411     0.29200
C764        C  0.41677065  0.17107029  0.94184517    -0.21600
C765        C  0.38456617  0.17434092  0.95151340    -0.09600
C766        C  0.36494943  0.14704134  0.95611925     0.29300
F767        F  0.33358395  0.14887888  0.96500710    -0.20100
H768        H  0.36306358  0.09711544  0.96043103     0.17600
H769        H  0.43226788  0.19122202  0.43898678     0.17600
F770        F  0.46127058  0.13893811  0.43469439    -0.20100
C771        C  0.43861600  0.32879209  0.96944190    -0.21600
C772        C  0.42057656  0.35562165  0.96524971    -0.09600
C773        C  0.38743046  0.35168688  0.96126215     0.29200
C774        C  0.37294784  0.32167248  0.96090813    -0.21600
C775        C  0.39080393  0.29463088  0.96536859    -0.09600
C776        C  0.42399481  0.29877050  0.97020713     0.29300
F777        F  0.44231681  0.27414104  0.97747383    -0.20100
H778        H  0.46390378  0.33114149  0.97369099     0.17600
H779        H  0.34761996  0.31977240  0.95696233     0.17600
F780        F  0.36891370  0.37698954  0.95750443    -0.20100
C781        C  0.02260314  0.15803139  0.00492512    -0.21600
C782        C  0.04034351  0.13117613  0.99863501    -0.09600
C783        C  0.07316089  0.13533396  0.99068505     0.29200
C784        C  0.08720545  0.16517349  0.98760234    -0.21600
C785        C  0.06981668  0.19237846  0.99332141    -0.09600
C786        C  0.03697841  0.18829151  0.00243569     0.29300
F787        F  0.01800174  0.21291993  0.00778665    -0.20100
H788        H  0.49776662  0.15550325  0.01051913     0.17600
H789        H  0.11230288  0.16703284  0.98054321     0.17600
F790        F  0.09210015  0.11046604  0.98559961    -0.20100
C791        C  0.08375170  0.36954224  0.98747573    -0.21600
C792        C  0.06035496  0.37447259  0.51053654    -0.09600
C793        C  0.05117729  0.34981803  0.53149196     0.29200
C794        C  0.06250573  0.31959547  0.52621811    -0.21600
C795        C  0.08251710  0.31383516  0.00002362    -0.09600
C796        C  0.09386456  0.33945641  0.98104878     0.29300
F797        F  0.11224328  0.33547049  0.95437338    -0.20100
H798        H  0.09121057  0.38840060  0.97114644     0.17600
H799        H  0.05460956  0.30077414  0.54231826     0.17600
F800        F  0.02928362  0.35433279  0.55529952    -0.20100
C801        C  0.00165887  0.09788887  0.65564664    -0.21600
C802        C  0.48582302  0.08267662  0.68186258    -0.09600
C803        C  0.47415137  0.05161183  0.67801488     0.29200
C804        C  0.47893425  0.03596815  0.64916841    -0.21600
C805        C  0.49457487  0.05100259  0.62298451    -0.09600
C806        C  0.00561261  0.08261536  0.62645004     0.29300
F807        F  0.01959669  0.09865714  0.60140412    -0.20100
H808        H  0.01085970  0.12165526  0.65760886     0.17600
H809        H  0.46874087  0.01261057  0.64673701     0.17600
F810        F  0.45643102  0.03680528  0.70152454    -0.20100
C811        C  0.01036961  0.06205740  0.80581392    -0.21600
C812        C  0.49283230  0.08963633  0.80322500    -0.09600
C813        C  0.49024087  0.10863085  0.83035085     0.29200
C814        C  0.50186138  0.09868130  0.85915221    -0.21600
C815        C  0.51642517  0.06979657  0.86177663    -0.09600
C816        C  0.02194640  0.05233247  0.83489655     0.29300
F817        F  0.03642885  0.02436043  0.83707798    -0.20100
H818        H  0.01572860  0.04798405  0.78540662     0.17600
H819        H  0.49701779  0.11235284  0.88011542     0.17600
F820        F  0.47698846  0.13725709  0.82896185    -0.20100
C821        C  0.38543908  0.19677439  0.76192173    -0.21600
C822        C  0.36588329  0.19426331  0.73573312    -0.09600
C823        C  0.37643492  0.17546320  0.71013228     0.29200
C824        C  0.40471045  0.15860724  0.71164669    -0.21600
C825        C  0.42311922  0.15969173  0.73863810    -0.09600
C826        C  0.41361745  0.17967292  0.76345393     0.29300
F827        F  0.43155331  0.18251634  0.78944139    -0.20100
H828        H  0.37836718  0.21110510  0.78176565     0.17600
H829        H  0.41153980  0.14367380  0.69217915     0.17600
F830        F  0.35920446  0.17288948  0.68359286    -0.20100
C831        C  0.06181892  0.15032755  0.71373943    -0.21600
C832        C  0.03605145  0.16514647  0.72861667    -0.09600
C833        C  0.04225623  0.19048384  0.74868449     0.29200
C834        C  0.07362507  0.19908614  0.75557303    -0.21600
C835        C  0.09925521  0.18273050  0.74245610    -0.09600
C836        C  0.09311199  0.15880249  0.72077276     0.29300
F837        F  0.11755797  0.14377706  0.70620721    -0.20100
H838        H  0.05765172  0.13002584  0.69922841     0.17600
H839        H  0.07796007  0.21895587  0.77061378     0.17600
F840        F  0.01781732  0.20456540  0.76430428    -0.20100
C841        C  0.48460753  0.60158797  0.27039026     0.86200
C842        C  0.45430498  0.62089231  0.26922187    -0.54000
C843        C  0.45174155  0.63837674  0.24201748     0.09100
C844        C  0.98014650  0.63362031  0.21752247     0.20100
C845        C  0.48340675  0.58094764  0.24079595    -0.54700
C846        C  0.48114151  0.59731438  0.21267891     0.09300
C847        C  0.01168730  0.62445851  0.26363920    -0.54300
C848        C  0.01009005  0.64128768  0.23666972     0.09800
H849        H  0.43662096  0.62115774  0.28864936     0.14300
H850        H  0.97884799  0.64762954  0.19526489     0.00100
H851        H  0.48556975  0.55578108  0.24164026     0.14600
H852        H  0.03202541  0.62670107  0.27896196     0.14400
O853        O  0.03256556  0.54970930  0.41093539    -0.80400
O854        O  0.37845358  0.96840170  0.47312629    -0.81900
O855        O  0.45512688  0.98222114  0.38507558    -0.79000
O856        O  0.42717891  0.56509865  0.43338488    -0.77400
O857        O  0.43379561  0.58359471  0.48349608    -0.79100
O858        O  0.48857827  0.94236082  0.39628575    -0.80100
O859        O  0.39314167  0.00130703  0.43162805    -0.81400
O860        O  0.48173092  0.54164313  0.39434629    -0.81700
Eu861      Eu  0.44933191  0.51263476  0.43247641     2.39200
O862        O  0.42829814  0.51312916  0.48425930    -0.89200
O863        O  0.50226536  0.99368286  0.43300910    -0.92800
C864        C  0.51060113  0.55174855  0.39050660     1.01900
C865        C  0.37224787  0.98513625  0.44838876     1.01700
C866        C  0.47219602  0.95875396  0.37719380     1.01600
C867        C  0.42497260  0.58621361  0.45472273     0.99500
H868        H  0.43402399  0.94796780  0.43869069     0.29300
O869        O  0.44747992  0.96046796  0.45198822    -1.01600
H870        H  0.48451075  0.56515379  0.45425702     0.29300
O871        O  0.48250086  0.54430036  0.46332842    -1.04100
O872        O  0.42796176  0.93378782  0.05665625    -0.81400
O873        O  0.08216942  0.51488776  0.49415054    -0.80900
O874        O  0.46296728  0.89476227  0.45678610    -0.79300
O875        O  0.40561946  0.53967293  0.04087368    -0.82700
O876        O  0.49719895  0.59282455  0.01151328    -0.80500
O877        O  0.05518887  0.94737976  0.42548153    -0.79200
O878        O  0.03764027  0.92157001  0.03174571    -0.80700
O879        O  0.00466862  0.50905624  0.08411897    -0.82600
O880        O  0.03124392  0.90609394  0.48132830    -0.79400
O881        O  0.47605024  0.55159228  0.07030325    -0.82000
O882        O  0.41893408  0.90756807  0.48706888    -0.77800
O883        O  0.07417432  0.99742734  0.43293389    -0.77800
O884        O  0.04052980  0.57876683  0.48063623    -0.77400
O885        O  0.38783408  0.99011562  0.03349484    -0.80900
O886        O  0.47904417  0.94142468  0.07309464    -0.80400
O887        O  0.06834343  0.98476992  0.03882718    -0.78700
Eu888      Eu  0.42704481  0.96107321  0.00457798     2.39800
Eu889      Eu  0.03385634  0.52453983  0.46396847     2.39600
Eu890      Eu  0.50011610  0.94208449  0.45229288     2.38400
Eu891      Eu  0.46086240  0.54509454  0.01569546     2.39900
Eu892      Eu  0.01103193  0.97393858  0.03740205     2.39800
O893        O  0.01307093  0.52577268  0.01705546    -0.93100
O894        O  0.47913740  0.94262705  0.50493057    -0.92000
C895        C  0.45047260  0.93008721  0.07638766     1.02100
C896        C  0.08836274  0.49848082  0.02086305     1.00800
C897        C  0.43513358  0.88821744  0.47028774     1.00200
C898        C  0.38389730  0.51736327  0.04242759     1.02200
C899        C  0.02481813  0.59891118  0.49691197     1.01100
C900        C  0.07702842  0.96961215  0.42231892     0.99900
C901        C  0.04234555  0.90235092  0.00845809     1.00000
C902        C  0.49166614  0.53559423  0.09031518     1.02600
H903        H  0.05199359  0.96497263  0.48446430     0.30000
O904        O  0.03107631  0.97382878  0.48462058    -1.05300
H905        H  0.44980379  0.99373759  0.05775241     0.32000
O906        O  0.45908109  0.99348035  0.03651996    -1.07800
C907        C  0.20980099  0.54494819  0.12288163     0.86200
C908        C  0.19176383  0.53524076  0.09394677    -0.54000
C909        C  0.20261989  0.50936950  0.07947558     0.09100
C910        C  0.23135045  0.99438307  0.09658086     0.20100
C911        C  0.20780616  0.51556548  0.14487486    -0.54700
C912        C  0.21919961  0.98852576  0.13143303     0.09300
C913        C  0.24500008  0.54741595  0.11186400    -0.54300
C914        C  0.25626576  0.52140757  0.09760611     0.09800
H915        H  0.17088134  0.54742081  0.08610276     0.14300
H916        H  0.23981762  0.97312432  0.08446084     0.00100
H917        H  0.19944459  0.51492675  0.16934844     0.14600
H918        H  0.25948136  0.56866741  0.11416697     0.14400
O919        O  0.15060111  0.69654791  0.26709390    -0.80400
O920        O  0.22680587  0.78625608  0.12606199    -0.81900
O921        O  0.13205274  0.77376373  0.19589309    -0.79000
O922        O  0.17782531  0.68999223  0.16600851    -0.77400
O923        O  0.22656522  0.66867399  0.17425857    -0.79100
O924        O  0.14485106  0.81326709  0.22952128    -0.80100
O925        O  0.18248065  0.75485175  0.13603401    -0.81400
O926        O  0.13826928  0.70767601  0.21570872    -0.81700
Eu927      Eu  0.17906031  0.74045902  0.19218740     2.39200
O928        O  0.23204272  0.73839594  0.17419050    -0.89200
O929        O  0.17588037  0.75619913  0.24533274    -0.92800
C930        C  0.13232676  0.69489504  0.24283192     1.01900
C931        C  0.20175130  0.77097779  0.11740932     1.01700
C932        C  0.12570175  0.79890219  0.21114506     1.01600
C933        C  0.19812427  0.66802271  0.16380993     0.99500
H934        H  0.18882127  0.80548474  0.18061136     0.29300
O935        O  0.20044211  0.79147956  0.19397665    -1.01600
H936        H  0.19639868  0.68461421  0.22448213     0.29300
O937        O  0.20632661  0.70523674  0.22457327    -1.04100
O938        O  0.30825042  0.81188884  0.18076822    -0.81400
O939        O  0.23355014  0.72905320  0.32790509    -0.80900
O940        O  0.20695487  0.85604852  0.21509985    -0.79300
O941        O  0.28645263  0.70953052  0.15172516    -0.82700
O942        O  0.25266069  0.65417134  0.24041642    -0.80500
O943        O  0.16999754  0.79911474  0.30107924    -0.79200
O944        O  0.27975603  0.82356219  0.28526465    -0.80700
O945        O  0.32837097  0.73341982  0.25370766    -0.82600
O946        O  0.22919392  0.84158377  0.27927745    -0.79400
O947        O  0.31457526  0.69531956  0.21888130    -0.82000
O948        O  0.24107967  0.84475363  0.17367716    -0.77800
O949        O  0.17041379  0.74704503  0.31514422    -0.77800
O950        O  0.22011855  0.66741426  0.28233170    -0.77400
O951        O  0.28567339  0.76163204  0.13830786    -0.80900
O952        O  0.32327852  0.79934359  0.23098355    -0.80400
O953        O  0.27975364  0.75727695  0.31607459    -0.78700
Eu954      Eu  0.25418251  0.78927330  0.17661702     2.39800
Eu955      Eu  0.20449970  0.72162535  0.27714803     2.39600
Eu956      Eu  0.19869526  0.80670887  0.24747600     2.38400
Eu957      Eu  0.25944847  0.70270816  0.20566494     2.39900
Eu958      Eu  0.28182610  0.77030717  0.25995396     2.39800
O959        O  0.25850305  0.71937420  0.25897252    -0.93100
O960        O  0.25261113  0.80537055  0.22931921    -0.92000
C961        C  0.32827672  0.81140755  0.20320972     1.02100
C962        C  0.25951818  0.74384077  0.33586018     1.00800
C963        C  0.22379507  0.86390965  0.18966231     1.00200
C964        C  0.29325498  0.73332000  0.13285478     1.02200
C965        C  0.23714283  0.64757709  0.26703702     1.01100
C966        C  0.16299980  0.77549180  0.32020807     0.99900
C967        C  0.25759436  0.84406482  0.28947342     1.00000
C968        C  0.33481103  0.70901440  0.23658457     1.02600
H969        H  0.22730597  0.78019040  0.29874919     0.30000
O970        O  0.22804521  0.77203060  0.27759695    -1.05300
H971        H  0.30376927  0.75246757  0.19888968     0.32000
O972        O  0.28219466  0.75344114  0.20739919    -1.07800
C973        C  0.08880597  0.72351303  0.48988845     0.86200
C974        C  0.12140779  0.72355592  0.00827052    -0.54000
C975        C  0.14039932  0.74965962  0.00288062     0.09100
C976        C  0.12527332  0.77353911  0.47925959     0.20100
C977        C  0.07286807  0.75466023  0.49918176    -0.54700
C978        C  0.09207344  0.78092799  0.49356155     0.09300
C979        C  0.09979863  0.72867584  0.45506079    -0.54300
C980        C  0.11845259  0.75498264  0.44897728     0.09800
H981        H  0.12612412  0.70644396  0.02672951     0.14300
H982        H  0.14136985  0.79425156  0.47541404     0.00100
H983        H  0.04921097  0.75636739  0.50987023     0.14600
H984        H  0.09279241  0.71271986  0.43662952     0.14400
C985        C  0.47742688  0.89755923  0.25759323     0.86200
C986        C  0.50812841  0.87913835  0.25231236    -0.54400
C987        C  0.50715350  0.85905784  0.22786081     0.09100
C988        C  0.47569909  0.85843972  0.21090655     0.20100
C989        C  0.47137568  0.91318039  0.22518591    -0.54700
C990        C  0.47049763  0.89237692  0.20083957     0.09300
C991        C  0.45113541  0.87174848  0.26150084    -0.54300
C992        C  0.44913526  0.85252242  0.23598796     0.09800
H993        H  0.02957725  0.88047206  0.26597443     0.14300
H994        H  0.47506878  0.84128412  0.19143884     0.00100
H995        H  0.46718002  0.93798522  0.22204898     0.14600
H996        H  0.43243750  0.87205687  0.27997331     0.14400
C997        C  0.37085858  0.70642238  0.45925539     0.86200
C998        C  0.34261558  0.71309890  0.43888501    -0.54000
C999        C  0.32527255  0.73803644  0.44784297     0.09100
C1000       C  0.33911214  0.75555987  0.47656405     0.20100
C1001       C  0.39099388  0.73716824  0.45739157    -0.54700
C1002       C  0.37479950  0.76321476  0.46684962     0.09300
C1003       C  0.35747247  0.70451809  0.49331666    -0.54300
C1004       C  0.34079161  0.72971560  0.50264742     0.09800
H1005       H  0.33683095  0.69907250  0.41848455     0.14300
H1006       H  0.32514982  0.77600709  0.48415992     0.00100
H1007       H  0.41540836  0.73864677  0.44825573     0.14600
H1008       H  0.36122602  0.68418166  0.01025969     0.14400
C1009       C  0.23502867  0.52440340  0.33299974     0.86200
C1010       C  0.25495805  0.52755175  0.36261079    -0.54000
C1011       C  0.25698262  0.00164931  0.38128912     0.09100
C1012       C  0.23420247  0.97566785  0.36970909     0.20100
C1013       C  0.24908764  0.99493630  0.31621659    -0.54700
C1014       C  0.24722461  0.96875944  0.33590648     0.09300
C1015       C  0.20105332  0.51530173  0.34530827    -0.54300
C1016       C  0.20153975  0.99044790  0.36460710     0.09800
H1017       H  0.27153348  0.54721607  0.36489820     0.14300
H1018       H  0.23239107  0.95512346  0.38608189     0.00100
H1019       H  0.25660083  0.99377056  0.29146354     0.14600
H1020       H  0.18021701  0.52814372  0.33866386     0.14400
C1021       C  0.10789910  0.75903676  0.39060864    -0.21600
C1022       C  0.12818018  0.76553011  0.41579238    -0.09600
C1023       C  0.15779666  0.78087648  0.40852758     0.29200
C1024       C  0.16716834  0.78818384  0.37689851    -0.21600
C1025       C  0.14762900  0.77994395  0.35179563    -0.09600
C1026       C  0.11770642  0.76549802  0.35904923     0.29300
F1027       F  0.09900586  0.75535367  0.33546218    -0.20100
H1028       H  0.08472574  0.74777337  0.39516211     0.17600
H1029       H  0.19106327  0.79767433  0.37180975     0.17600
F1030       F  0.17903478  0.78629630  0.43144638    -0.20100
C1031       C  0.20116112  0.74353777  0.06643321    -0.21600
C1032       C  0.19444743  0.77049052  0.08375293    -0.09600
C1033       C  0.17469632  0.79306584  0.07107743     0.29200
C1034       C  0.15986171  0.78759033  0.04247402    -0.21600
C1035       C  0.16394028  0.75917981  0.02663068    -0.09600
C1036       C  0.18605145  0.73784585  0.03798512     0.29300
F1037       F  0.19127603  0.71057629  0.02280840    -0.20100
H1038       H  0.21623936  0.72580791  0.07616261     0.17600
H1039       H  0.14286827  0.80432343  0.03441031     0.17600
F1040       F  0.16725567  0.81884762  0.08789554    -0.20100
C1041       C  0.26043668  0.72261078  0.39182444    -0.21600
C1042       C  0.26737268  0.74688742  0.36979427    -0.09600
C1043       C  0.28552820  0.77320204  0.37955467     0.29200
C1044       C  0.30079051  0.77267175  0.40852304    -0.21600
C1045       C  0.29778113  0.74623200  0.42839493    -0.09600
C1046       C  0.27535275  0.72236327  0.42106939     0.29300
F1047       F  0.27124666  0.69677247  0.44038764    -0.20100
H1048       H  0.24587894  0.70255921  0.38536902     0.17600
H1049       H  0.31774110  0.79131819  0.41363150     0.17600
F1050       F  0.29052253  0.79855313  0.36002739    -0.20100
C1051       C  0.29946344  0.70492816  0.08181380    -0.21600
C1052       C  0.30921742  0.72922433  0.10145879    -0.09600
C1053       C  0.32915482  0.75367876  0.08838119     0.29200
C1054       C  0.33796778  0.75439289  0.05611860    -0.21600
C1055       C  0.32758135  0.73056349  0.03636037    -0.09600
C1056       C  0.30863398  0.70549462  0.04954561     0.29300
F1057       F  0.29844742  0.68186993  0.03097460    -0.20100
H1058       H  0.28350091  0.68635923  0.09105478     0.17600
H1059       H  0.35349573  0.77321628  0.04667369     0.17600
F1060       F  0.33961838  0.77732135  0.10682851    -0.20100
C1061       C  0.23537805  0.91134211  0.33956496    -0.21600
C1062       C  0.25431544  0.93603246  0.32610585    -0.09600
C1063       C  0.27895798  0.92869956  0.30392619     0.29200
C1064       C  0.28310003  0.89748277  0.29445568    -0.21600
C1065       C  0.26295554  0.87323029  0.30712287    -0.09600
C1066       C  0.23971616  0.88052638  0.33049565     0.29300
F1067       F  0.21883425  0.85804877  0.34226923    -0.20100
H1068       H  0.21567761  0.91586168  0.35596813     0.17600
H1069       H  0.30043356  0.89262942  0.27564283     0.17600
F1070       F  0.29846122  0.95158334  0.29081577    -0.20100
C1071       C  0.22268740  0.61079236  0.31227414    -0.21600
C1072       C  0.23794345  0.61547993  0.28223217    -0.09600
C1073       C  0.25277080  0.58955278  0.26820042     0.29200
C1074       C  0.25160486  0.55988557  0.28373971    -0.21600
C1075       C  0.23597263  0.55546966  0.31380174    -0.09600
C1076       C  0.22193125  0.58178751  0.32780822     0.29300
F1077       F  0.20729933  0.57963243  0.35703354    -0.20100
H1078       H  0.21122428  0.62985793  0.32439517     0.17600
H1079       H  0.26351793  0.54076768  0.27231514     0.17600
F1080       F  0.26848309  0.59275255  0.23963989    -0.20100
C1081       C  0.36409571  0.85533920  0.21014053    -0.21600
C1082       C  0.35979420  0.82528752  0.19843037    -0.09600
C1083       C  0.38558109  0.80497363  0.19658007     0.29200
C1084       C  0.41458572  0.81372490  0.20946198    -0.21600
C1085       C  0.41783119  0.84260732  0.22440318    -0.09600
C1086       C  0.39285361  0.86404106  0.22315242     0.29300
F1087       F  0.39591516  0.89327830  0.23483505    -0.20100
H1088       H  0.34414177  0.87092134  0.21218112     0.17600
H1089       H  0.43413517  0.79761587  0.20877886     0.17600
F1090       F  0.38154456  0.77554642  0.18541529    -0.20100
C1091       C  0.06619150  0.79470962  0.21342507    -0.21600
C1092       C  0.09437387  0.81283455  0.20808067    -0.09600
C1093       C  0.09273118  0.84549147  0.20485754     0.29200
C1094       C  0.06365231  0.85997073  0.20904619    -0.21600
C1095       C  0.03589025  0.84219344  0.21682701    -0.09600
C1096       C  0.03690512  0.80940248  0.21796208     0.29300
F1097       F  0.01027262  0.79195025  0.22613125    -0.20100
H1098       H  0.06721265  0.76953051  0.21640986     0.17600
H1099       H  0.06302183  0.88530120  0.20791543     0.17600
F1100       F  0.11959600  0.86351527  0.19942557    -0.20100
C1101       C  0.19753239  0.91635160  0.18389989    -0.21600
C1102       C  0.22338031  0.89687785  0.17709836    -0.09600
C1103       C  0.24833301  0.90868857  0.15650380     0.29200
C1104       C  0.24668516  0.93833903  0.14217702    -0.21600
C1105       C  0.22045701  0.95737350  0.14807411    -0.09600
C1106       C  0.19598853  0.94623996  0.16958306     0.29300
F1107       F  0.16987198  0.96355697  0.17577477    -0.20100
H1108       H  0.17796017  0.90805962  0.19952655     0.17600
H1109       H  0.26628073  0.94653328  0.12652482     0.17600
F1110       F  0.27467315  0.89169516  0.15023226    -0.20100
C1111       C  0.20130534  0.60135059  0.11094159    -0.21600
C1112       C  0.19824676  0.57650918  0.13354940    -0.09600
C1113       C  0.18620678  0.58296654  0.16424994     0.29200
C1114       C  0.18167662  0.61386687  0.17282545    -0.21600
C1115       C  0.18829299  0.63839162  0.15101623    -0.09600
C1116       C  0.19643076  0.63206535  0.11958739     0.29300
F1117       F  0.20336442  0.65569879  0.09835661    -0.20100
H1118       H  0.20976573  0.59709678  0.08686963     0.17600
H1119       H  0.17620793  0.61885174  0.19748345     0.17600
F1120       F  0.18072833  0.56047968  0.18680951    -0.20100
C1121       C  0.46865231  0.89061840  0.11229363    -0.21600
C1122       C  0.44507458  0.91221428  0.10578368    -0.09600
C1123       C  0.42730148  0.92519147  0.13092023     0.29200
C1124       C  0.43530544  0.91864735  0.16223829    -0.21600
C1125       C  0.46145017  0.89976333  0.16832458    -0.09600
C1126       C  0.47774291  0.88548622  0.14310623     0.29300
F1127       F  0.00448368  0.86872993  0.14757953    -0.20100
H1128       H  0.48318839  0.88122067  0.09312039     0.17600
H1129       H  0.42195817  0.92916173  0.18157017     0.17600
F1130       F  0.40475888  0.94660565  0.12514681    -0.20100
C1131       C  0.44697367  0.94783451  0.32573470    -0.21600
C1132       C  0.47422184  0.94991447  0.34388524    -0.09600
C1133       C  0.50379461  0.94151608  0.33057206     0.29200
C1134       C  0.50541889  0.92747568  0.30119767    -0.21600
C1135       C  0.47739355  0.92041058  0.28496425    -0.09600
C1136       C  0.44858531  0.93352393  0.29616827     0.29300
F1137       F  0.42160876  0.93089888  0.27949739    -0.20100
H1138       H  0.42418604  0.95555776  0.33517822     0.17600
H1139       H  0.52884805  0.92187990  0.29204311     0.17600
F1140       F  0.53113746  0.94613965  0.34641465    -0.20100
C1141       C  0.11273272  0.96800260  0.37361789    -0.21600
C1142       C  0.10864953  0.96419697  0.40661858    -0.09600
C1143       C  0.13603762  0.96515275  0.42511375     0.29200
C1144       C  0.16650194  0.97150007  0.41108557    -0.21600
C1145       C  0.17025110  0.97777602  0.37840786    -0.09600
C1146       C  0.14319459  0.97454703  0.35958362     0.29300
F1147       F  0.14603316  0.97891354  0.32767830    -0.20100
H1148       H  0.09206866  0.96821178  0.35892918     0.17600
H1149       H  0.18683303  0.97375641  0.42611222     0.17600
F1150       F  0.13291409  0.96263449  0.45718406    -0.20100
C1151       C  0.32535212  0.01690616  0.43656581    -0.21600
C1152       C  0.33898772  0.98731415  0.43828033    -0.09600
C1153       C  0.32274703  0.96158897  0.42560658     0.29200
C1154       C  0.29478347  0.96602261  0.40888953    -0.21600
C1155       C  0.28223388  0.99614189  0.40500917    -0.09600
C1156       C  0.29700215  0.02127857  0.42070617     0.29300
F1157       F  0.28479372  0.05037687  0.41988320    -0.20100
H1158       H  0.33740084  0.03698310  0.44660084     0.17600
H1159       H  0.28440416  0.94608085  0.39717476     0.17600
F1160       F  0.33536924  0.93270319  0.42699404    -0.20100
C1161       C  0.14668725  0.01762631  0.01703499    -0.21600
C1162       C  0.12210853  0.49499287  0.02939080    -0.09600
C1163       C  0.13083994  0.47157531  0.05122937     0.29200
C1164       C  0.16134960  0.47219027  0.06352406    -0.21600
C1165       C  0.18330205  0.49610547  0.05437101    -0.09600
C1166       C  0.17712248  0.01824870  0.02953439     0.29300
F1167       F  0.19762573  0.04239169  0.02134543    -0.20100
H1168       H  0.14068786  0.03574345  0.00019524     0.17600
H1169       H  0.16620734  0.45668273  0.08324333     0.17600
F1170       F  0.10939516  0.44935921  0.06239901    -0.20100
C1171       C  0.32580919  0.50816145  0.04062123    -0.21600
C1172       C  0.35155332  0.52239130  0.05595864    -0.09600
C1173       C  0.34586088  0.53660983  0.08520581     0.29200
C1174       C  0.31484509  0.53589786  0.09894813    -0.21600
C1175       C  0.28925325  0.52092377  0.08371162    -0.09600
C1176       C  0.29509678  0.50729735  0.05421152     0.29300
F1177       F  0.27112080  0.49381685  0.03797915    -0.20100
H1178       H  0.32972632  0.49705440  0.01803627     0.17600
H1179       H  0.31094410  0.54650009  0.12184301     0.17600
F1180       F  0.37031246  0.54958634  0.10114140    -0.20100
C1181       C  0.37881909  0.61895290  0.44855605    -0.21600
C1182       C  0.41177887  0.61607347  0.44632064    -0.09600
C1183       C  0.43187369  0.64282364  0.44394959     0.29200
C1184       C  0.41894505  0.67252980  0.44578628    -0.21600
C1185       C  0.38580230  0.67566336  0.45059790    -0.09600
C1186       C  0.36583016  0.64837350  0.45099776     0.29300
F1187       F  0.33378356  0.64995425  0.45650013    -0.20100
H1188       H  0.36328858  0.59832819  0.45120532     0.17600
H1189       H  0.43529254  0.69141625  0.94526858     0.17600
F1190       F  0.46380776  0.63888801  0.94102307    -0.20100
C1191       C  0.43814472  0.82955296  0.47251337    -0.21600
C1192       C  0.42031580  0.85630767  0.46716525    -0.09600
C1193       C  0.38732666  0.85234017  0.46221813     0.29200
C1194       C  0.37282465  0.82229340  0.46206141    -0.21600
C1195       C  0.39057394  0.79535698  0.46748041    -0.09600
C1196       C  0.42351372  0.79956108  0.47330730     0.29300
F1197       F  0.44151034  0.77495275  0.48142487    -0.20100
H1198       H  0.46325524  0.83196486  0.47753437     0.17600
H1199       H  0.34763892  0.82022106  0.45742768     0.17600
F1200       F  0.36905503  0.87760240  0.45723991    -0.20100
C1201       C  0.02224464  0.65792035  0.50335878    -0.21600
C1202       C  0.04018603  0.63088784  0.49860244    -0.09600
C1203       C  0.07336187  0.63480500  0.49265543     0.29200
C1204       C  0.08773865  0.66457822  0.49027893    -0.21600
C1205       C  0.07020296  0.69194852  0.49463267    -0.09600
C1206       C  0.03684780  0.68811138  0.50131988     0.29300
F1207       F  0.01763411  0.71295162  0.50417235    -0.20100
H1208       H  0.49658996  0.65554374  0.50687919     0.17600
H1209       H  0.11315843  0.66623110  0.48466836     0.17600
F1210       F  0.09229972  0.60974107  0.48882147    -0.20100
C1211       C  0.08374355  0.86919746  0.48830239    -0.21600
C1212       C  0.06180995  0.87413017  0.01163284    -0.09600
C1213       C  0.05318213  0.84966872  0.03307928     0.29200
C1214       C  0.06433669  0.81931089  0.02783779    -0.21600
C1215       C  0.08259491  0.81353273  0.50128138    -0.09600
C1216       C  0.09387829  0.83905307  0.48211191     0.29300
F1217       F  0.11226914  0.83490153  0.45547808    -0.20100
H1218       H  0.09120710  0.88793515  0.47183360     0.17600
H1219       H  0.05675070  0.80063283  0.04424301     0.17600
F1220       F  0.03206627  0.85448721  0.05748441    -0.20100
C1221       C  0.00142749  0.59559148  0.15550014    -0.21600
C1222       C  0.48385617  0.58128005  0.18110820    -0.09600
C1223       C  0.47090008  0.55076357  0.17687592     0.29200
C1224       C  0.47588026  0.53497663  0.14817251    -0.21600
C1225       C  0.49298954  0.54939641  0.12252126    -0.09600
C1226       C  0.00542980  0.58011296  0.12644570     0.29300
F1227       F  0.02121658  0.59529719  0.10186281    -0.20100
H1228       H  0.01210872  0.61873820  0.15785013     0.17600
H1229       H  0.46476598  0.51206023  0.14538410     0.17600
F1230       F  0.45189006  0.53668087  0.19986442    -0.20100
C1231       C  0.00616635  0.55853580  0.30526230    -0.21600
C1232       C  0.49153368  0.58717423  0.30235696    -0.09600
C1233       C  0.49128782  0.60691642  0.32902447     0.29200
C1234       C  0.50371321  0.59706231  0.35742952    -0.21600
C1235       C  0.51641273  0.56736893  0.36021751    -0.09600
C1236       C  0.01855423  0.54898231  0.33400095     0.29300
F1237       F  0.03075929  0.51996376  0.33664106    -0.20100
H1238       H  0.00919802  0.54337515  0.28524424     0.17600
H1239       H  0.50077393  0.61155635  0.37813324     0.17600
F1240       F  0.47999005  0.63636849  0.32735957    -0.20100
C1241       C  0.38684485  0.69695211  0.26266941    -0.21600
C1242       C  0.36730217  0.69486445  0.23641537    -0.09600
C1243       C  0.37820960  0.67698649  0.21028356     0.29200
C1244       C  0.40654803  0.66017436  0.21147271    -0.21600
C1245       C  0.42478606  0.66052120  0.23860372    -0.09600
C1246       C  0.41518814  0.68001774  0.26382168     0.29300
F1247       F  0.43310144  0.68243392  0.28987828    -0.20100
H1248       H  0.37959987  0.71073612  0.28286369     0.17600
H1249       H  0.41346476  0.64571461  0.19166096     0.17600
F1250       F  0.36121315  0.67523450  0.18353746    -0.20100
C1251       C  0.06453668  0.64572151  0.21546205    -0.21600
C1252       C  0.03833241  0.66113114  0.22886023    -0.09600
C1253       C  0.04398820  0.68658350  0.24892489     0.29200
C1254       C  0.07510965  0.69529610  0.25659802    -0.21600
C1255       C  0.10113526  0.67886721  0.24442951    -0.09600
C1256       C  0.09559188  0.65422889  0.22339978     0.29300
F1257       F  0.12036390  0.63854540  0.21031636    -0.20100
H1258       H  0.06076023  0.62509368  0.20130572     0.17600
H1259       H  0.07897085  0.71547703  0.27134444     0.17600
F1260       F  0.01915102  0.70083928  0.26369254    -0.20100
C1261       C  0.48598531  0.60215164  0.77103540     0.86200
C1262       C  0.45513591  0.62059732  0.76984097    -0.54000
C1263       C  0.45201761  0.63783645  0.74258076     0.09100
C1264       C  0.98060233  0.63381373  0.71746025     0.20100
C1265       C  0.48525703  0.58124507  0.74155503    -0.54700
C1266       C  0.48229699  0.59727075  0.71329046     0.09300
C1267       C  0.01259860  0.62608411  0.76355610    -0.54300
C1268       C  0.01054592  0.64237378  0.73627367     0.09800
H1269       H  0.43750862  0.62053578  0.78933196     0.14300
H1270       H  0.97879975  0.64760612  0.69513649     0.00100
H1271       H  0.48820854  0.55619945  0.74268381     0.14600
H1272       H  0.03298807  0.62894861  0.77871706     0.14400
O1273       O  0.03365867  0.55069969  0.91178889    -0.80400
O1274       O  0.37851537  0.96857521  0.97346776    -0.81900
O1275       O  0.45466611  0.98180735  0.88506823    -0.79000
O1276       O  0.42753195  0.56441374  0.93359588    -0.77400
O1277       O  0.43365161  0.58293467  0.98377022    -0.79100
O1278       O  0.48787484  0.94178493  0.89647319    -0.80100
O1279       O  0.39314423  0.00187160  0.93226162    -0.81400
O1280       O  0.48327360  0.54275473  0.89487519    -0.81700
Eu1281     Eu  0.45137192  0.51276928  0.93238754     2.39200
O1282       O  0.42862298  0.51334153  0.98362255    -0.89200
O1283       O  0.50240495  0.99333521  0.93295744    -0.92800
C1284       C  0.51204603  0.55318706  0.89154270     1.01900
C1285       C  0.37225504  0.98567391  0.94902670     1.01700
C1286       C  0.47147693  0.95810048  0.87734841     1.01600
C1287       C  0.42488266  0.58541465  0.95498975     0.99500
H1288       H  0.43396932  0.94784507  0.93864966     0.29300
O1289       O  0.44748568  0.96032532  0.95190676    -1.01600
H1290       H  0.48535388  0.56546825  0.95503780     0.29300
O1291       O  0.48348784  0.54454874  0.96396901    -1.04100
O1292       O  0.42810386  0.93426518  0.55686722    -0.81400
O1293       O  0.08239342  0.51486982  0.99583936    -0.80900
O1294       O  0.46303978  0.89433418  0.95693024    -0.79300
O1295       O  0.40549738  0.53971843  0.54046407    -0.82700
O1296       O  0.49708468  0.59279591  0.51058073    -0.80500
O1297       O  0.05525098  0.94779719  0.92548122    -0.79200
O1298       O  0.03745861  0.92248460  0.53231443    -0.80700
O1299       O  0.00535488  0.50906639  0.58400303    -0.82600
O1300       O  0.03153695  0.90567130  0.98058467    -0.79400
O1301       O  0.47592363  0.55205438  0.56999069    -0.82000
O1302       O  0.41890172  0.90727002  0.98695851    -0.77800
O1303       O  0.07425640  0.99776551  0.93335702    -0.77800
O1304       O  0.04083208  0.57877243  0.98172223    -0.77400
O1305       O  0.38765612  0.99049728  0.53326587    -0.80900
O1306       O  0.47909637  0.94246155  0.57332715    -0.80400
O1307       O  0.06828030  0.98572163  0.53857198    -0.78700
Eu1308     Eu  0.42694966  0.96135225  0.50463550     2.39800
Eu1309     Eu  0.03471454  0.52479577  0.96469701     2.39600
Eu1310     Eu  0.50002460  0.94173244  0.95225793     2.38400
Eu1311     Eu  0.46073993  0.54531730  0.51539105     2.39900
Eu1312     Eu  0.01106856  0.97476517  0.53714705     2.39800
O1313       O  0.01327587  0.52577250  0.51666134    -0.93100
O1314       O  0.47913978  0.94215724  0.00491396    -0.92000
C1315       C  0.45062865  0.93092369  0.57666399     1.02100
C1316       C  0.08853917  0.49852912  0.51906076     1.00800
C1317       C  0.43517472  0.88782040  0.97036051     1.00200
C1318       C  0.38396210  0.51727666  0.54297426     1.02200
C1319       C  0.02491920  0.59887911  0.99780067     1.01100
C1320       C  0.07708313  0.97005931  0.92248470     0.99900
C1321       C  0.04199768  0.90303208  0.50926015     1.00000
C1322       C  0.49156701  0.53613391  0.59005838     1.02600
H1323       H  0.05192384  0.96466280  0.98461311     0.30000
O1324       O  0.03099284  0.97348933  0.98485610    -1.05300
H1325       H  0.44959938  0.99427051  0.55780890     0.32000
O1326       O  0.45885151  0.99396623  0.53656642    -1.07800
C1327       C  0.21046199  0.54467864  0.62088180     0.86200
C1328       C  0.19302263  0.53579839  0.59131924    -0.54000
C1329       C  0.20325095  0.50957415  0.57704004     0.09100
C1330       C  0.23128493  0.99483985  0.59635767     0.20100
C1331       C  0.20691173  0.51515898  0.64272254    -0.54700
C1332       C  0.21966380  0.98887936  0.63135744     0.09300
C1333       C  0.24596630  0.54593655  0.61101634    -0.54300
C1334       C  0.25657213  0.51968875  0.59683364     0.09800
H1335       H  0.17276501  0.54869584  0.58306855     0.14300
H1336       H  0.23982944  0.97366399  0.58415969     0.00100
H1337       H  0.19861645  0.51498003  0.66722751     0.14600
H1338       H  0.26126953  0.56654094  0.61395892     0.14400
O1339       O  0.15102710  0.69706447  0.76673735    -0.80400
O1340       O  0.22661712  0.78660309  0.62569742    -0.81900
O1341       O  0.13302015  0.77464109  0.69508115    -0.79000
O1342       O  0.17889754  0.69005042  0.66518266    -0.77400
O1343       O  0.22783813  0.66902051  0.67295240    -0.79100
O1344       O  0.14601833  0.81415652  0.72861838    -0.80100
O1345       O  0.18215870  0.75542149  0.63587477    -0.81400
O1346       O  0.13850950  0.70840064  0.71544314    -0.81700
Eu1347     Eu  0.17958280  0.74063093  0.69178479     2.39200
O1348       O  0.23246988  0.73869187  0.67345219    -0.89200
O1349       O  0.17659728  0.75649796  0.74493789    -0.92800
C1350       C  0.13257705  0.69566427  0.74257555     1.01900
C1351       C  0.20132086  0.77157784  0.61720397     1.01700
C1352       C  0.12688010  0.79999413  0.71007882     1.01600
C1353       C  0.19944276  0.66828557  0.66243824     0.99500
H1354       H  0.18959889  0.80566199  0.68035000     0.29300
O1355       O  0.20117714  0.79159743  0.69369086    -1.01600
H1356       H  0.19694846  0.68468068  0.72381202     0.29300
O1357       O  0.20684324  0.70531670  0.72404534    -1.04100
O1358       O  0.30911193  0.81157313  0.67975547    -0.81400
O1359       O  0.23476574  0.72915940  0.82732242    -0.80900
O1360       O  0.20828545  0.85626982  0.71464020    -0.79300
O1361       O  0.28711574  0.70996365  0.65109576    -0.82700
O1362       O  0.25342194  0.65473713  0.73956492    -0.80500
O1363       O  0.17047975  0.79925554  0.80066379    -0.79200
O1364       O  0.28028376  0.82363109  0.78544763    -0.80700
O1365       O  0.32870968  0.73316151  0.75346382    -0.82600
O1366       O  0.22968238  0.84157327  0.77958882    -0.79400
O1367       O  0.31484268  0.69524432  0.71846796    -0.82000
O1368       O  0.24201602  0.84493288  0.67291631    -0.77800
O1369       O  0.17115632  0.74720576  0.81475009    -0.77800
O1370       O  0.22107882  0.66766255  0.78179548    -0.77400
O1371       O  0.28606605  0.76198429  0.63744468    -0.80900
O1372       O  0.32420273  0.79937175  0.73004192    -0.80400
O1373       O  0.28096257  0.75735166  0.81537133    -0.78700
Eu1374     Eu  0.25476531  0.78947714  0.67596989     2.39800
Eu1375     Eu  0.20519298  0.72182765  0.77668179     2.39600
Eu1376     Eu  0.19953713  0.80699493  0.74713256     2.38400
Eu1377     Eu  0.25995809  0.70313912  0.70491881     2.39900
Eu1378     Eu  0.28260580  0.77065168  0.75934214     2.39800
O1379       O  0.25908361  0.71982103  0.75819632    -0.93100
O1380       O  0.25341491  0.80577954  0.72871042    -0.92000
C1381       C  0.32922578  0.81113636  0.70212426     1.02100
C1382       C  0.26085722  0.74382794  0.83521717     1.00800
C1383       C  0.22494998  0.86411056  0.68907329     1.00200
C1384       C  0.29377539  0.73368950  0.63212217     1.02200
C1385       C  0.23825807  0.64806709  0.76632494     1.01100
C1386       C  0.16352875  0.77559528  0.81979354     0.99900
C1387       C  0.25801360  0.84399314  0.78996945     1.00000
C1388       C  0.33501299  0.70865674  0.73642729     1.02600
H1389       H  0.22812160  0.78028245  0.79834387     0.30000
O1390       O  0.22884447  0.77221324  0.77715148    -1.05300
H1391       H  0.30444580  0.75261691  0.69821846     0.32000
O1392       O  0.28289074  0.75374235  0.70674816    -1.07800
C1393       C  0.09020450  0.72285800  0.99010667     0.86200
C1394       C  0.11975249  0.72427031  0.50843782    -0.54000
C1395       C  0.13873688  0.75039479  0.50325850     0.09100
C1396       C  0.12665478  0.77282389  0.97901326     0.20100
C1397       C  0.07447716  0.75404198  0.99958354    -0.54700
C1398       C  0.09361113  0.78025360  0.99364649     0.09300
C1399       C  0.10085911  0.72793601  0.95514071    -0.54300
C1400       C  0.11951706  0.75423461  0.94879875     0.09800
H1401       H  0.12434186  0.70709545  0.52687440     0.14300
H1402       H  0.14256851  0.79365918  0.97503083     0.00100
H1403       H  0.05098104  0.75584087  0.01062168     0.14600
H1404       H  0.09363569  0.71192155  0.93684964     0.14400
C1405       C  0.47760369  0.89619543  0.75786368     0.86200
C1406       C  0.50876355  0.87859979  0.75213666    -0.54400
C1407       C  0.50825786  0.85914731  0.72711301     0.09100
C1408       C  0.47681585  0.85828572  0.71014797     0.20100
C1409       C  0.47130392  0.91248124  0.72584622    -0.54700
C1410       C  0.47099517  0.89232725  0.70094019     0.09300
C1411       C  0.45194064  0.86973333  0.76108761    -0.54300
C1412       C  0.45031103  0.85120931  0.73500993     0.09800
H1413       H  0.02990898  0.88046278  0.76589294     0.14300
H1414       H  0.47653831  0.84157513  0.69027843     0.00100
H1415       H  0.46665895  0.93726060  0.72334447     0.14600
H1416       H  0.43320305  0.86919863  0.77954980     0.14400
C1417       C  0.37116492  0.70562559  0.96037635     0.86200
C1418       C  0.34314173  0.71227669  0.93972441    -0.54000
C1419       C  0.32585300  0.73734796  0.94830682     0.09100
C1420       C  0.33944070  0.75492711  0.97714108     0.20100
C1421       C  0.39143532  0.73630763  0.95856055    -0.54700
C1422       C  0.37524084  0.76247006  0.96771545     0.09300
C1423       C  0.35752409  0.70391620  0.99434116    -0.54300
C1424       C  0.34079055  0.72916686  0.00340254     0.09800
H1425       H  0.33753682  0.69817458  0.91932219     0.14300
H1426       H  0.32544841  0.77542611  0.98450929     0.00100
H1427       H  0.41592480  0.73764395  0.94965580     0.14600
H1428       H  0.36131161  0.68471161  0.50909937     0.14400
C1429       C  0.23677811  0.52484231  0.83156846     0.86200
C1430       C  0.25747797  0.52644277  0.86080886    -0.54000
C1431       C  0.25718221  0.00181446  0.88204401     0.09100
C1432       C  0.23438110  0.97579898  0.87045398     0.20100
C1433       C  0.24981090  0.99463809  0.81691837    -0.54700
C1434       C  0.24767143  0.96860180  0.83680626     0.09300
C1435       C  0.20282110  0.51705859  0.84461657    -0.54300
C1436       C  0.20184708  0.99073957  0.86497263     0.09800
H1437       H  0.27563067  0.54477603  0.86337639     0.14300
H1438       H  0.23229757  0.95529469  0.88686279     0.00100
H1439       H  0.25762067  0.99328210  0.79225706     0.14600
H1440       H  0.18254541  0.53119587  0.83899611     0.14400
C1441       C  0.10888844  0.75782392  0.89030938    -0.21600
C1442       C  0.12903486  0.76479206  0.91548751    -0.09600
C1443       C  0.15824129  0.78091565  0.90812188     0.29200
C1444       C  0.16732677  0.78856274  0.87648238    -0.21600
C1445       C  0.14798291  0.77986759  0.85138855    -0.09600
C1446       C  0.11844044  0.76464792  0.85872548     0.29300
F1447       F  0.09988635  0.75416628  0.83516825    -0.20100
H1448       H  0.08599239  0.74601701  0.89486594     0.17600
H1449       H  0.19097101  0.79865429  0.87136775     0.17600
F1450       F  0.17946182  0.78683823  0.93092919    -0.20100
C1451       C  0.19988668  0.74409166  0.56640032    -0.21600
C1452       C  0.19364891  0.77119325  0.58364608    -0.09600
C1453       C  0.17377483  0.79379830  0.57118554     0.29200
C1454       C  0.15855995  0.78829386  0.54277510    -0.21600
C1455       C  0.16232556  0.75980297  0.52698455    -0.09600
C1456       C  0.18434466  0.73834394  0.53822361     0.29300
F1457       F  0.18907508  0.71090337  0.52320567    -0.20100
H1458       H  0.21492997  0.72627947  0.57603123     0.17600
H1459       H  0.14155868  0.80507879  0.53482525     0.17600
F1460       F  0.16660446  0.81963190  0.58804460    -0.20100
C1461       C  0.26159031  0.72252594  0.89126373    -0.21600
C1462       C  0.26904409  0.74662630  0.86915182    -0.09600
C1463       C  0.28775551  0.77259610  0.87890566     0.29200
C1464       C  0.30270658  0.77194880  0.90805386    -0.21600
C1465       C  0.29890612  0.74574668  0.92817343    -0.09600
C1466       C  0.27624734  0.72215425  0.92066674     0.29300
F1467       F  0.27148884  0.69673546  0.94011391    -0.20100
H1468       H  0.24667445  0.70272174  0.88482763     0.17600
H1469       H  0.31993535  0.79033067  0.91322112     0.17600
F1470       F  0.29345444  0.79778396  0.85930650    -0.20100
C1471       C  0.29960436  0.70542941  0.58103663    -0.21600
C1472       C  0.30972294  0.72950446  0.60077357    -0.09600
C1473       C  0.32993041  0.75378708  0.58780450     0.29200
C1474       C  0.33863922  0.75458607  0.55552464    -0.21600
C1475       C  0.32785294  0.73100509  0.53567306    -0.09600
C1476       C  0.30866648  0.70607740  0.54875200     0.29300
F1477       F  0.29811425  0.68271265  0.53005212    -0.20100
H1478       H  0.28341956  0.68701571  0.59022066     0.17600
H1479       H  0.35435006  0.77328820  0.54612468     0.17600
F1480       F  0.34070296  0.77720017  0.60637226    -0.20100
C1481       C  0.23525215  0.91124339  0.84014599    -0.21600
C1482       C  0.25477414  0.93578809  0.82727611    -0.09600
C1483       C  0.27999013  0.92827106  0.80583472     0.29200
C1484       C  0.28404871  0.89705992  0.79628068    -0.21600
C1485       C  0.26318286  0.87298057  0.80807616    -0.09600
C1486       C  0.23941969  0.88041958  0.83092105     0.29300
F1487       F  0.21795981  0.85813411  0.84199703    -0.20100
H1488       H  0.21525736  0.91595018  0.85613387     0.17600
H1489       H  0.30189298  0.89213212  0.77797100     0.17600
F1490       F  0.30015126  0.95101367  0.79350098    -0.20100
C1491       C  0.22949112  0.61243242  0.81345306    -0.21600
C1492       C  0.23999745  0.61617693  0.78154504    -0.09600
C1493       C  0.25053582  0.58941455  0.76549141     0.29200
C1494       C  0.24969968  0.55976946  0.78098865    -0.21600
C1495       C  0.23850459  0.55618917  0.81289827    -0.09600
C1496       C  0.22872413  0.58331245  0.82878059     0.29300
F1497       F  0.21814524  0.58173120  0.85957717    -0.20100
H1498       H  0.22158406  0.63228171  0.82700518     0.17600
H1499       H  0.25779958  0.53990949  0.76774736     0.17600
F1500       F  0.26108215  0.59167181  0.73475892    -0.20100
C1501       C  0.36529708  0.85473092  0.70924594    -0.21600
C1502       C  0.36079642  0.82489719  0.69710997    -0.09600
C1503       C  0.38656769  0.80459594  0.69457110     0.29200
C1504       C  0.41572701  0.81305342  0.70739274    -0.21600
C1505       C  0.41906586  0.84158450  0.72299850    -0.09600
C1506       C  0.39413189  0.86309248  0.72224102     0.29300
F1507       F  0.39727487  0.89207782  0.73446853    -0.20100
H1508       H  0.34540667  0.87034293  0.71171871     0.17600
H1509       H  0.43527054  0.79695255  0.70622468     0.17600
F1510       F  0.38242825  0.77546930  0.68269672    -0.20100
C1511       C  0.06739776  0.79602021  0.70982337    -0.21600
C1512       C  0.09572596  0.81428604  0.70670566    -0.09600
C1513       C  0.09415123  0.84707734  0.70541075     0.29200
C1514       C  0.06499956  0.86136029  0.70988401    -0.21600
C1515       C  0.03706252  0.84324361  0.71581328    -0.09600
C1516       C  0.03801621  0.81049815  0.71443313     0.29300
F1517       F  0.01113271  0.79265474  0.72029284    -0.20100
H1518       H  0.06828325  0.77071779  0.71108588     0.17600
H1519       H  0.06440432  0.88668854  0.71037814     0.17600
F1520       F  0.12107941  0.86532523  0.70159956    -0.20100
C1521       C  0.19909664  0.91677228  0.68424017    -0.21600
C1522       C  0.22451993  0.89708407  0.67655885    -0.09600
C1523       C  0.24893350  0.90871784  0.65521524     0.29200
C1524       C  0.24715327  0.93846522  0.64113226    -0.21600
C1525       C  0.22128103  0.95771384  0.64791480    -0.09600
C1526       C  0.19738085  0.94670238  0.67011091     0.29300
F1527       F  0.17158056  0.96416388  0.67718882    -0.20100
H1528       H  0.17993782  0.90862301  0.70043947     0.17600
H1529       H  0.26635029  0.94652738  0.62493347     0.17600
F1530       F  0.27484440  0.89145798  0.64791175    -0.20100
C1531       C  0.20531465  0.60173914  0.60918325    -0.21600
C1532       C  0.19969905  0.57669226  0.63122113    -0.09600
C1533       C  0.18534705  0.58317762  0.66095448     0.29200
C1534       C  0.18118430  0.61416987  0.66962499    -0.21600
C1535       C  0.19012505  0.63882896  0.64864828    -0.09600
C1536       C  0.20070897  0.63254010  0.61781887     0.29300
F1537       F  0.20990956  0.65618991  0.59734156    -0.20100
H1538       H  0.21534960  0.59747594  0.58567357     0.17600
H1539       H  0.17391466  0.61897839  0.69388070     0.17600
F1540       F  0.17661489  0.56041422  0.68237057    -0.20100
C1541       C  0.46918418  0.89160300  0.61241304    -0.21600
C1542       C  0.44548531  0.91313151  0.60611991    -0.09600
C1543       C  0.42800940  0.92618758  0.63141276     0.29200
C1544       C  0.43607906  0.91939296  0.66265544    -0.21600
C1545       C  0.46216970  0.90037248  0.66852183    -0.09600
C1546       C  0.47853227  0.88645652  0.64312174     0.29300
F1547       F  0.00501059  0.86964168  0.64750003    -0.20100
H1548       H  0.48363156  0.88230874  0.59312327     0.17600
H1549       H  0.42278520  0.92977558  0.68210032     0.17600
F1550       F  0.40566744  0.94785994  0.62586282    -0.20100
C1551       C  0.44597455  0.94552274  0.82644295    -0.21600
C1552       C  0.47336861  0.94884732  0.84418825    -0.09600
C1553       C  0.50306259  0.94091392  0.83082041     0.29200
C1554       C  0.50485265  0.92637752  0.80170980    -0.21600
C1555       C  0.47691298  0.91849537  0.78569674    -0.09600
C1556       C  0.44774890  0.93078653  0.79710581     0.29300
F1557       F  0.42065713  0.92715852  0.78079113    -0.20100
H1558       H  0.42303045  0.95269296  0.83601859     0.17600
H1559       H  0.52837814  0.92122754  0.79248322     0.17600
F1560       F  0.53040330  0.94652477  0.84638792    -0.20100
C1561       C  0.11261463  0.97000381  0.87370645    -0.21600
C1562       C  0.10859871  0.96482149  0.90653244    -0.09600
C1563       C  0.13604726  0.96455593  0.92493384     0.29200
C1564       C  0.16657068  0.97087431  0.91099797    -0.21600
C1565       C  0.17032315  0.97836660  0.87854699    -0.09600
C1566       C  0.14310517  0.97650901  0.85977494     0.29300
F1567       F  0.14581836  0.98209615  0.82803819    -0.20100
H1568       H  0.09189721  0.97121034  0.85914764     0.17600
H1569       H  0.18698520  0.97211036  0.92601067     0.17600
F1570       F  0.13299030  0.96080855  0.95690824    -0.20100
C1571       C  0.32577806  0.01780730  0.93669129    -0.21600
C1572       C  0.33894223  0.98807302  0.93923228    -0.09600
C1573       C  0.32198995  0.96211805  0.92793059     0.29200
C1574       C  0.29401912  0.96640532  0.91120701    -0.21600
C1575       C  0.28207442  0.99661204  0.90620061    -0.09600
C1576       C  0.29729860  0.02204356  0.92105823     0.29300
F1577       F  0.28546349  0.05127650  0.91957264    -0.20100
H1578       H  0.33826235  0.03804467  0.94591303     0.17600
H1579       H  0.28321042  0.94619517  0.90033521     0.17600
F1580       F  0.33395382  0.93303334  0.93057905    -0.20100
C1581       C  0.14669965  0.01820326  0.51695949    -0.21600
C1582       C  0.12242954  0.49514127  0.52712389    -0.09600
C1583       C  0.13150693  0.47152467  0.54856130     0.29200
C1584       C  0.16203044  0.47233540  0.56082284    -0.21600
C1585       C  0.18368216  0.49659386  0.55193100    -0.09600
C1586       C  0.17709399  0.01861454  0.52954566     0.29300
F1587       F  0.19769216  0.04275515  0.52161091    -0.20100
H1588       H  0.14080466  0.03644187  0.50021010     0.17600
H1589       H  0.16711757  0.45661920  0.58029995     0.17600
F1590       F  0.11034700  0.44890069  0.55938434    -0.20100
C1591       C  0.32584880  0.51296639  0.53836403    -0.21600
C1592       C  0.35185113  0.52263493  0.55637346    -0.09600
C1593       C  0.34656150  0.53035398  0.58821227     0.29200
C1594       C  0.31546245  0.52871971  0.60158590    -0.21600
C1595       C  0.28956768  0.51861557  0.58354063    -0.09600
C1596       C  0.29503543  0.51072555  0.55180652     0.29300
F1597       F  0.27054517  0.50160063  0.53356456    -0.20100
H1598       H  0.32966663  0.50620710  0.51389867     0.17600
H1599       H  0.31157301  0.53488785  0.62618948     0.17600
F1600       F  0.37146167  0.53767528  0.60667004    -0.20100
C1601       C  0.37859515  0.61808981  0.94994701    -0.21600
C1602       C  0.41147979  0.61512625  0.94663223    -0.09600
C1603       C  0.43162688  0.64179457  0.94368168     0.29200
C1604       C  0.41889372  0.67153800  0.94602718    -0.21600
C1605       C  0.38590352  0.67476036  0.95184580    -0.09600
C1606       C  0.36580133  0.64754955  0.95274708     0.29300
F1607       F  0.33386919  0.64928032  0.95894479    -0.20100
H1608       H  0.36306585  0.59751162  0.95308496     0.17600
H1609       H  0.43527449  0.69245363  0.44561525     0.17600
F1610       F  0.46410320  0.64006155  0.44226211    -0.20100
C1611       C  0.43847338  0.82913924  0.97264440    -0.21600
C1612       C  0.42046779  0.85581183  0.96742056    -0.09600
C1613       C  0.38745705  0.85165514  0.96272240     0.29200
C1614       C  0.37310229  0.82153773  0.96271635    -0.21600
C1615       C  0.39099285  0.79467629  0.96809030    -0.09600
C1616       C  0.42398897  0.79906520  0.97362250     0.29300
F1617       F  0.44220987  0.77459241  0.98164571    -0.20100
H1618       H  0.46362501  0.83168053  0.97744727     0.17600
H1619       H  0.34789168  0.81937223  0.95824174     0.17600
F1620       F  0.36900102  0.87680085  0.95783942    -0.20100
C1621       C  0.02285983  0.65800416  0.00384809    -0.21600
C1622       C  0.04053719  0.63073497  0.99968279    -0.09600
C1623       C  0.07382704  0.63426035  0.99413940     0.29200
C1624       C  0.08855924  0.66385896  0.99145558    -0.21600
C1625       C  0.07130588  0.69146642  0.99521868    -0.09600
C1626       C  0.03783791  0.68802871  0.00157672     0.29300
F1627       F  0.01885774  0.71309864  0.00374770    -0.20100
H1628       H  0.49738639  0.65592231  0.00849306     0.17600
H1629       H  0.11402503  0.66516224  0.98604924     0.17600
F1630       F  0.09253185  0.60895260  0.99086223    -0.20100
C1631       C  0.08345506  0.86812345  0.98638376    -0.21600
C1632       C  0.06122964  0.87482922  0.51284395    -0.09600
C1633       C  0.05120898  0.84993321  0.53319614     0.29200
C1634       C  0.06205050  0.81955896  0.52757976    -0.21600
C1635       C  0.08400232  0.81289894  0.00100049    -0.09600
C1636       C  0.09410982  0.83802408  0.98078110     0.29300
F1637       F  0.11193632  0.83338502  0.95386963    -0.20100
H1638       H  0.09003546  0.88649918  0.96918905     0.17600
H1639       H  0.05350091  0.80060823  0.54321555     0.17600
F1640       F  0.02899390  0.85441552  0.55671106    -0.20100
C1641       C  0.00025373  0.59656115  0.65493135    -0.21600
C1642       C  0.48480889  0.58116463  0.68161617    -0.09600
C1643       C  0.47403706  0.54976138  0.67782209     0.29200
C1644       C  0.47866745  0.53440256  0.64877018    -0.21600
C1645       C  0.49299845  0.55009835  0.62228217    -0.09600
C1646       C  0.00398528  0.58130605  0.62573215     0.29300
F1647       F  0.01700410  0.59762608  0.60039111    -0.20100
H1648       H  0.00906766  0.62048145  0.65661356     0.17600
H1649       H  0.46932424  0.51070454  0.64646599     0.17600
F1650       F  0.45732218  0.53425612  0.70156879    -0.20100
C1651       C  0.00910188  0.56035831  0.80570623    -0.21600
C1652       C  0.49334959  0.58819296  0.80313173    -0.09600
C1653       C  0.49222714  0.60796064  0.82978049     0.29200
C1654       C  0.50444551  0.59843250  0.85842208    -0.21600
C1655       C  0.51804273  0.56914230  0.86140730    -0.09600
C1656       C  0.02119198  0.55092583  0.83462908     0.29300
F1657       F  0.03412198  0.52222951  0.83725930    -0.20100
H1658       H  0.01297420  0.54541824  0.78564835     0.17600
H1659       H  0.50069477  0.61279779  0.87910428     0.17600
F1660       F  0.48009107  0.63706300  0.82795149    -0.20100
C1661       C  0.38644931  0.69582870  0.76320085    -0.21600
C1662       C  0.36725833  0.69403321  0.73667602    -0.09600
C1663       C  0.37826781  0.67604692  0.71066009     0.29200
C1664       C  0.40660102  0.65924148  0.71202297    -0.21600
C1665       C  0.42465473  0.65954357  0.73928229    -0.09600
C1666       C  0.41470597  0.67879329  0.76458759     0.29300
F1667       F  0.43225156  0.68099787  0.79091172    -0.20100
H1668       H  0.37903441  0.70955111  0.78338270     0.17600
H1669       H  0.41370726  0.64488501  0.69219492     0.17600
F1670       F  0.36141999  0.67423694  0.68382206    -0.20100
C1671       C  0.06517392  0.64578687  0.71567578    -0.21600
C1672       C  0.03875246  0.66196603  0.72757224    -0.09600
C1673       C  0.04411049  0.68850437  0.74620832     0.29200
C1674       C  0.07506479  0.69731600  0.75441441    -0.21600
C1675       C  0.10123340  0.67991295  0.74418344    -0.09600
C1676       C  0.09602960  0.65434051  0.72424369     0.29300
F1677       F  0.12094799  0.63776842  0.71283246    -0.20100
H1678       H  0.06159712  0.62447740  0.70250733     0.17600
H1679       H  0.07872322  0.71829344  0.76805762     0.17600
F1680       F  0.01904044  0.70390190  0.75914268    -0.20100
C1681       C  0.98456482  0.10402427  0.27095457     0.86200
C1682       C  0.95377364  0.12258876  0.26941874    -0.54000
C1683       C  0.95108881  0.13989466  0.24208857     0.09100
C1684       C  0.47931197  0.13538635  0.21731081     0.20100
C1685       C  0.98416154  0.08331368  0.24133648    -0.54700
C1686       C  0.98174343  0.09947351  0.21313815     0.09300
C1687       C  0.51095878  0.12772847  0.26369458    -0.54300
C1688       C  0.50889173  0.14418769  0.23647690     0.09800
H1689       H  0.93588444  0.12258342  0.28867073     0.14300
H1690       H  0.47765478  0.14915517  0.19493916     0.00100
H1691       H  0.98662690  0.05817544  0.24226569     0.14600
H1692       H  0.53118937  0.13069472  0.27902799     0.14400
O1693       O  0.53259662  0.05046643  0.41117222    -0.80400
O1694       O  0.87751107  0.46823648  0.47123916    -0.81900
O1695       O  0.95480639  0.48321929  0.38359088    -0.79000
O1696       O  0.92710726  0.06478616  0.43439075    -0.77400
O1697       O  0.93382481  0.08372395  0.48430998    -0.79100
O1698       O  0.98698687  0.44242786  0.39509462    -0.80100
O1699       O  0.89223229  0.50150700  0.43004386    -0.81400
O1700       O  0.98179485  0.04235763  0.39503185    -0.81700
Eu1701     Eu  0.95028551  0.01280187  0.43348873     2.39200
O1702       O  0.92948309  0.01345575  0.48534053    -0.89200
O1703       O  0.00093269  0.49351116  0.43245472    -0.92800
C1704       C  0.01050822  0.05289259  0.39112309     1.01900
C1705       C  0.87136035  0.48509058  0.44657938     1.01700
C1706       C  0.97147279  0.45941062  0.37577952     1.01600
C1707       C  0.92450914  0.08591700  0.45566110     0.99500
H1708       H  0.93236538  0.44817841  0.43704989     0.29300
O1709       O  0.94586658  0.46057484  0.45040599    -1.01600
H1710       H  0.98503456  0.06570210  0.45495859     0.29300
O1711       O  0.98330852  0.04485998  0.46409558    -1.04100
O1712       O  0.92540025  0.43326787  0.05349667    -0.81400
O1713       O  0.58299604  0.01598318  0.49525632    -0.80900
O1714       O  0.96136972  0.39426466  0.45571971    -0.79300
O1715       O  0.90585401  0.04037321  0.04092455    -0.82700
O1716       O  0.99743869  0.09321502  0.01155015    -0.80500
O1717       O  0.55341544  0.44616573  0.42493945    -0.79200
O1718       O  0.53673093  0.42180205  0.03185891    -0.80700
O1719       O  0.50616829  0.00980054  0.08474757    -0.82600
O1720       O  0.53001115  0.40560671  0.48027949    -0.79400
O1721       O  0.97658504  0.05220236  0.07115727    -0.82000
O1722       O  0.91759800  0.40726415  0.48614527    -0.77800
O1723       O  0.57285876  0.49600533  0.43277573    -0.77800
O1724       O  0.54109253  0.07925928  0.48133729    -0.77400
O1725       O  0.88748261  0.48925957  0.03180746    -0.80900
O1726       O  0.97600891  0.44155386  0.07093418    -0.80400
O1727       O  0.56708775  0.48400225  0.03893454    -0.78700
Eu1728     Eu  0.92598589  0.46104547  0.00172989     2.39800
Eu1729     Eu  0.53479578  0.02517706  0.46443715     2.39600
Eu1730     Eu  0.99816905  0.44172631  0.45117594     2.38400
Eu1731     Eu  0.96148381  0.04541347  0.01658487     2.39900
Eu1732     Eu  0.50975274  0.47361951  0.03645923     2.39800
O1733       O  0.51409661  0.02582903  0.01728699    -0.93100
O1734       O  0.97767363  0.44210427  0.50382138    -0.92000
C1735       C  0.94751716  0.42995235  0.07370236     1.02100
C1736       C  0.58963014  0.99903606  0.02020523     1.00800
C1737       C  0.93365024  0.38776672  0.46942710     1.00200
C1738       C  0.88411353  0.01809191  0.04298176     1.02200
C1739       C  0.52543062  0.09933085  0.49772923     1.01100
C1740       C  0.57540714  0.46819030  0.42206950     0.99900
C1741       C  0.54182922  0.40272141  0.00862601     1.00000
C1742       C  0.99244974  0.03644281  0.09115726     1.02600
H1743       H  0.55061001  0.46418962  0.48362136     0.30000
O1744       O  0.52971959  0.47308707  0.48371130    -1.05300
H1745       H  0.94801512  0.49306950  0.05581541     0.32000
O1746       O  0.95757235  0.49300455  0.03469021    -1.07800
C1747       C  0.71031884  0.04460414  0.12387044     0.86200
C1748       C  0.69236833  0.03530028  0.09474999    -0.54000
C1749       C  0.70321606  0.00966778  0.07989544     0.09100
C1750       C  0.73072381  0.49406298  0.09639121     0.20100
C1751       C  0.70795787  0.01504693  0.14558381    -0.54700
C1752       C  0.71840578  0.48912947  0.13111243     0.09300
C1753       C  0.74558899  0.04688379  0.11309787    -0.54300
C1754       C  0.75670860  0.02100160  0.09851138     0.09800
H1755       H  0.67167635  0.04777483  0.08687813     0.14300
H1756       H  0.73896610  0.47230054  0.08509358     0.00100
H1757       H  0.69968368  0.01455574  0.17007724     0.14600
H1758       H  0.76022343  0.06800694  0.11562833     0.14400
O1759       O  0.64956307  0.19809061  0.26551051    -0.80400
O1760       O  0.72572366  0.28822870  0.12494634    -0.81900
O1761       O  0.63171637  0.27477925  0.19291473    -0.79000
O1762       O  0.67749047  0.19011198  0.16557240    -0.77400
O1763       O  0.72640651  0.16911679  0.17366150    -0.79100
O1764       O  0.64384182  0.31404909  0.22705612    -0.80100
O1765       O  0.68224131  0.25561801  0.13457456    -0.81400
O1766       O  0.63723009  0.20975745  0.21423573    -0.81700
Eu1767     Eu  0.67870598  0.24128278  0.19063167     2.39200
O1768       O  0.73173861  0.23970044  0.17269830    -0.89200
O1769       O  0.67510032  0.25679021  0.24383658    -0.92800
C1770       C  0.63114316  0.19703568  0.24133160     1.01900
C1771       C  0.70102677  0.27241270  0.11610466     1.01700
C1772       C  0.62512690  0.29994134  0.20803872     1.01600
C1773       C  0.69781768  0.16812624  0.16361320     0.99500
H1774       H  0.68809970  0.30639544  0.17937964     0.29300
O1775       O  0.69969227  0.29241320  0.19279696    -1.01600
H1776       H  0.69597578  0.18543821  0.22327023     0.29300
O1777       O  0.70588499  0.20607326  0.22317382    -1.04100
O1778       O  0.80759693  0.31386474  0.18047229    -0.81400
O1779       O  0.73286320  0.22997251  0.32642485    -0.80900
O1780       O  0.70573976  0.35687676  0.21423972    -0.79300
O1781       O  0.78597162  0.21171247  0.15014630    -0.82700
O1782       O  0.75345970  0.15568422  0.23976059    -0.80500
O1783       O  0.66799441  0.29947688  0.29953480    -0.79200
O1784       O  0.77796051  0.32391960  0.28498613    -0.80700
O1785       O  0.82751377  0.23465507  0.25250813    -0.82600
O1786       O  0.72725236  0.34176164  0.27932150    -0.79400
O1787       O  0.81401645  0.19658177  0.21757205    -0.82000
O1788       O  0.74025575  0.34609565  0.17293831    -0.77800
O1789       O  0.66939762  0.24751849  0.31384541    -0.77800
O1790       O  0.72034074  0.16825233  0.28151777    -0.77400
O1791       O  0.78491814  0.26389187  0.13720591    -0.80900
O1792       O  0.82246052  0.30145422  0.23075637    -0.80400
O1793       O  0.77908888  0.25814067  0.31462562    -0.78700
Eu1794     Eu  0.75347172  0.29080357  0.17561924     2.39800
Eu1795     Eu  0.70375984  0.22233868  0.27577868     2.39600
Eu1796     Eu  0.69734424  0.30744213  0.24631013     2.38400
Eu1797     Eu  0.75909517  0.20399854  0.20425141     2.39900
Eu1798     Eu  0.78087513  0.27145309  0.25868902     2.39800
O1799       O  0.75776168  0.22054397  0.25753287    -0.93100
O1800       O  0.75143185  0.30664128  0.22837856    -0.92000
C1801       C  0.82749477  0.31379026  0.20310056     1.02100
C1802       C  0.75887313  0.24467248  0.33437722     1.00800
C1803       C  0.72275224  0.36497268  0.18899840     1.00200
C1804       C  0.79257322  0.23571870  0.13143792     1.02200
C1805       C  0.73810493  0.14881080  0.26644735     1.01100
C1806       C  0.66140772  0.27583932  0.31876982     0.99900
C1807       C  0.75561387  0.34407642  0.28969090     1.00000
C1808       C  0.83408008  0.21024338  0.23543987     1.02600
H1809       H  0.72610698  0.28087942  0.29747466     0.30000
O1810       O  0.72698270  0.27283880  0.27627354    -1.05300
H1811       H  0.80333737  0.25415811  0.19771053     0.32000
O1812       O  0.78169466  0.25487386  0.20609925    -1.07800
C1813       C  0.58939574  0.22376175  0.48952357     0.86200
C1814       C  0.61982236  0.22437783  0.00662748    -0.54000
C1815       C  0.63883681  0.25052069  0.00165628     0.09100
C1816       C  0.62569000  0.27377573  0.47811370     0.20100
C1817       C  0.57363111  0.25491559  0.49899970    -0.54700
C1818       C  0.59271533  0.28116283  0.49295752     0.09300
C1819       C  0.59968307  0.22885242  0.45445510    -0.54300
C1820       C  0.61828265  0.25512137  0.44801174     0.09800
H1821       H  0.62433021  0.20708397  0.02497265     0.14300
H1822       H  0.64168082  0.29451853  0.47383568     0.00100
H1823       H  0.55011685  0.25672264  0.50995685     0.14600
H1824       H  0.59224778  0.21295488  0.43613467     0.14400
C1825       C  0.97905312  0.40096472  0.25428461     0.86200
C1826       C  0.00984216  0.38282901  0.24799076    -0.54400
C1827       C  0.00833475  0.36284884  0.22344615     0.09100
C1828       C  0.97641326  0.36229327  0.20724917     0.20100
C1829       C  0.97229090  0.41692891  0.22213626    -0.54700
C1830       C  0.97107632  0.39630005  0.19760430     0.09300
C1831       C  0.95293081  0.37501119  0.25837098    -0.54300
C1832       C  0.95017803  0.35618838  0.23265557     0.09800
H1833       H  0.53165563  0.38422993  0.26119971     0.14300
H1834       H  0.97542513  0.34527348  0.18769060     0.00100
H1835       H  0.96789937  0.44172954  0.21932145     0.14600
H1836       H  0.93479237  0.37498874  0.27740436     0.14400
C1837       C  0.86870683  0.20560177  0.45926310     0.86200
C1838       C  0.84032589  0.21184665  0.43893773    -0.54000
C1839       C  0.82337892  0.23729654  0.44720597     0.09100
C1840       C  0.83731478  0.25527421  0.47555113     0.20100
C1841       C  0.88898421  0.23626686  0.45666531    -0.54700
C1842       C  0.87306704  0.26261249  0.46576020     0.09300
C1843       C  0.85550886  0.20456920  0.49340357    -0.54300
C1844       C  0.83873730  0.22990710  0.50207444     0.09800
H1845       H  0.83434773  0.19731851  0.41895755     0.14300
H1846       H  0.82334577  0.27582030  0.48278762     0.00100
H1847       H  0.91334858  0.23736678  0.44750073     0.14600
H1848       H  0.86104328  0.18628457  0.01046879     0.14400
C1849       C  0.73771267  0.02496033  0.33202398     0.86200
C1850       C  0.75817993  0.02731858  0.36141066    -0.54000
C1851       C  0.75462877  0.50137605  0.38168379     0.09100
C1852       C  0.73208463  0.47503040  0.37047069     0.20100
C1853       C  0.74692637  0.49364503  0.31677010    -0.54700
C1854       C  0.74528428  0.46780491  0.33687484     0.09300
C1855       C  0.70373507  0.01596908  0.34477195    -0.54300
C1856       C  0.69932196  0.48936744  0.36493313     0.09800
H1857       H  0.77485433  0.04684045  0.36419302     0.14300
H1858       H  0.73037351  0.45469779  0.38711410     0.00100
H1859       H  0.75446432  0.49216071  0.29205066     0.14600
H1860       H  0.68286335  0.02906341  0.33872630     0.14400
C1861       C  0.60663936  0.26013723  0.38982409    -0.21600
C1862       C  0.62760752  0.26560438  0.41470643    -0.09600
C1863       C  0.65760992  0.27994662  0.40709553     0.29200
C1864       C  0.66666408  0.28738869  0.37544562    -0.21600
C1865       C  0.64641449  0.28028878  0.35056335    -0.09600
C1866       C  0.61607227  0.26683395  0.35813879     0.29300
F1867       F  0.59646794  0.25802555  0.33474622    -0.20100
H1868       H  0.58320815  0.24953796  0.39473705     0.17600
H1869       H  0.69081228  0.29607106  0.37009632     0.17600
F1870       F  0.67945699  0.28416035  0.42968917    -0.20100
C1871       C  0.69905429  0.24399550  0.06586917    -0.21600
C1872       C  0.69363683  0.27169552  0.08240267    -0.09600
C1873       C  0.67455269  0.29458702  0.06918295     0.29200
C1874       C  0.65931414  0.28881515  0.04077815    -0.21600
C1875       C  0.66230677  0.25983469  0.02567103    -0.09600
C1876       C  0.68353478  0.23801189  0.03772621     0.29300
F1877       F  0.68749199  0.21001296  0.02356005    -0.20100
H1878       H  0.71342794  0.22593950  0.07606367     0.17600
H1879       H  0.64293102  0.30592764  0.03226419     0.17600
F1880       F  0.66810128  0.32105268  0.08530537    -0.20100
C1881       C  0.75896472  0.22339702  0.39030038    -0.21600
C1882       C  0.76680891  0.24746342  0.36828168    -0.09600
C1883       C  0.78568353  0.27326725  0.37811443     0.29200
C1884       C  0.80057463  0.27234661  0.40725517    -0.21600
C1885       C  0.79654924  0.24601170  0.42716198    -0.09600
C1886       C  0.77357671  0.22274949  0.41967640     0.29300
F1887       F  0.76843081  0.19737729  0.43910504    -0.20100
H1888       H  0.74382727  0.20378133  0.38378847     0.17600
H1889       H  0.81797402  0.29054163  0.41253576     0.17600
F1890       F  0.79167596  0.29845262  0.35857087    -0.20100
C1891       C  0.79994493  0.20673969  0.08090775    -0.21600
C1892       C  0.80815492  0.23214079  0.09977654    -0.09600
C1893       C  0.82600011  0.25767599  0.08574104     0.29200
C1894       C  0.83467202  0.25796657  0.05348152    -0.21600
C1895       C  0.82626593  0.23272363  0.03465816    -0.09600
C1896       C  0.80885820  0.20699220  0.04861931     0.29300
F1897       F  0.80005719  0.18226048  0.03081320    -0.20100
H1898       H  0.78541106  0.18738917  0.09077890     0.17600
H1899       H  0.84880636  0.27749624  0.04339423     0.17600
F1900       F  0.83472181  0.28270471  0.10322191    -0.20100
C1901       C  0.73374073  0.41042061  0.34096915    -0.21600
C1902       C  0.75264774  0.43513967  0.32751998    -0.09600
C1903       C  0.77738024  0.42798361  0.30543413     0.29200
C1904       C  0.78141198  0.39692814  0.29566156    -0.21600
C1905       C  0.76102950  0.37272796  0.30793157    -0.09600
C1906       C  0.73794962  0.37971042  0.33155284     0.29300
F1907       F  0.71713208  0.35711661  0.34320308    -0.20100
H1908       H  0.71408929  0.41486333  0.35745977     0.17600
H1909       H  0.79875260  0.39220662  0.27681337     0.17600
F1910       F  0.79698992  0.45092835  0.29260967    -0.20100
C1911       C  0.72596680  0.11202891  0.31251196    -0.21600
C1912       C  0.74002264  0.11679904  0.28192427    -0.09600
C1913       C  0.75454657  0.09090132  0.26747738     0.29200
C1914       C  0.75369300  0.06109814  0.28284920    -0.21600
C1915       C  0.73880883  0.05644664  0.31325834    -0.09600
C1916       C  0.72557700  0.08285567  0.32790919     0.29300
F1917       F  0.71192681  0.08055334  0.35755798    -0.20100
H1918       H  0.71502148  0.13112803  0.32504970     0.17600
H1919       H  0.76514817  0.04200064  0.27092970     0.17600
F1920       F  0.76953200  0.09422474  0.23856396    -0.20100
C1921       C  0.86292442  0.35773616  0.21269349    -0.21600
C1922       C  0.85879060  0.32865056  0.19871261    -0.09600
C1923       C  0.88519116  0.30958231  0.19348318     0.29200
C1924       C  0.91489396  0.31847959  0.20493417    -0.21600
C1925       C  0.91834068  0.34629882  0.22182838    -0.09600
C1926       C  0.89240647  0.36667620  0.22405918     0.29300
F1927       F  0.89520062  0.39515369  0.23746553    -0.20100
H1928       H  0.84258690  0.37237760  0.21731425     0.17600
H1929       H  0.93489476  0.30315562  0.20165057     0.17600
F1930       F  0.88148722  0.28116186  0.17994622    -0.20100
C1931       C  0.56551094  0.29693969  0.20945607    -0.21600
C1932       C  0.59411736  0.31435468  0.20396048    -0.09600
C1933       C  0.59318990  0.34699588  0.20000143     0.29200
C1934       C  0.56449431  0.36224837  0.20424293    -0.21600
C1935       C  0.53635512  0.34520582  0.21247385    -0.09600
C1936       C  0.53658673  0.31237594  0.21375688     0.29300
F1937       F  0.50953013  0.29560331  0.22196946    -0.20100
H1938       H  0.56593158  0.27177265  0.21285212     0.17600
H1939       H  0.56448272  0.38759081  0.20281719     0.17600
F1940       F  0.62044871  0.36426433  0.19394466    -0.20100
C1941       C  0.69563815  0.41667102  0.18212208    -0.21600
C1942       C  0.72236363  0.39794020  0.17680345    -0.09600
C1943       C  0.74826883  0.41041292  0.15787764     0.29200
C1944       C  0.74681708  0.44012657  0.14375976    -0.21600
C1945       C  0.71976006  0.45837925  0.14815354    -0.09600
C1946       C  0.69425484  0.44657844  0.16790447     0.29300
F1947       F  0.66736279  0.46324002  0.17221965    -0.20100
H1948       H  0.67532501  0.40773985  0.19638394     0.17600
H1949       H  0.76704167  0.44890202  0.12924946     0.17600
F1950       F  0.77521843  0.39393496  0.15293703    -0.20100
C1951       C  0.70193099  0.10096317  0.11176620    -0.21600
C1952       C  0.69891111  0.07625562  0.13453205    -0.09600
C1953       C  0.68674528  0.08288260  0.16515526     0.29200
C1954       C  0.68167836  0.11384980  0.17337575    -0.21600
C1955       C  0.68805126  0.13824051  0.15130111    -0.09600
C1956       C  0.69647776  0.13165577  0.12002511     0.29300
F1957       F  0.70318192  0.15514475  0.09857219    -0.20100
H1958       H  0.71059965  0.09662458  0.08777967     0.17600
H1959       H  0.67590556  0.11906014  0.19792951     0.17600
F1960       F  0.68171881  0.06053084  0.18794392    -0.20100
C1961       C  0.96592613  0.39124895  0.10970940    -0.21600
C1962       C  0.94191874  0.41235125  0.10315848    -0.09600
C1963       C  0.92514542  0.42642017  0.12833875     0.29200
C1964       C  0.93460708  0.42152146  0.15950779    -0.21600
C1965       C  0.96142899  0.40348865  0.16527296    -0.09600
C1966       C  0.97700730  0.38850174  0.14006400     0.29300
F1967       F  0.50429148  0.37230563  0.14423296    -0.20100
H1968       H  0.97976474  0.38110162  0.09045234     0.17600
H1969       H  0.92176333  0.43249869  0.17888974     0.17600
F1970       F  0.90216907  0.44735959  0.12248948    -0.20100
C1971       C  0.94787365  0.45031960  0.32301134    -0.21600
C1972       C  0.97434141  0.45093856  0.34230190    -0.09600
C1973       C  0.00397865  0.44153880  0.32991248     0.29200
C1974       C  0.00633530  0.42837938  0.30010874    -0.21600
C1975       C  0.97892954  0.42316485  0.28232832    -0.09600
C1976       C  0.95016857  0.43678799  0.29305207     0.29300
F1977       F  0.92371952  0.43526048  0.27551908    -0.20100
H1978       H  0.92505965  0.45859260  0.33180281     0.17600
H1979       H  0.02980070  0.42177589  0.29205018     0.17600
F1980       F  0.03069119  0.44426209  0.34708576    -0.20100
C1981       C  0.61062683  0.46741199  0.37346806    -0.21600
C1982       C  0.60672560  0.46249604  0.40629796    -0.09600
C1983       C  0.63411497  0.46229674  0.42474175     0.29200
C1984       C  0.66453947  0.46884558  0.41081823    -0.21600
C1985       C  0.66812536  0.47638947  0.37838432    -0.09600
C1986       C  0.64099774  0.47410613  0.35954412     0.29300
F1987       F  0.64362061  0.47965844  0.32779861    -0.20100
H1988       H  0.58989511  0.46849482  0.35892653     0.17600
H1989       H  0.68494294  0.47033941  0.42582686     0.17600
F1990       F  0.63105429  0.45857628  0.45672192    -0.20100
C1991       C  0.82476673  0.51703648  0.43461272    -0.21600
C1992       C  0.83812781  0.48734835  0.43653617    -0.09600
C1993       C  0.82135854  0.46152411  0.42470043     0.29200
C1994       C  0.79298371  0.46592001  0.40868670    -0.21600
C1995       C  0.78055432  0.49608851  0.40469725    -0.09600
C1996       C  0.79604674  0.52139225  0.41946648     0.29300
F1997       F  0.78417394  0.55062246  0.41847018    -0.20100
H1998       H  0.83723352  0.53717774  0.44405172     0.17600
H1999       H  0.78213399  0.44583782  0.39762453     0.17600
F2000       F  0.83371546  0.43252542  0.42626811    -0.20100
C2001       C  0.64622462  0.51505021  0.01642975    -0.21600
C2002       C  0.62351419  0.99587442  0.02835404    -0.09600
C2003       C  0.63281730  0.97165555  0.04898246     0.29200
C2004       C  0.66323092  0.97240352  0.06146997    -0.21600
C2005       C  0.68445303  0.99735422  0.05386682    -0.09600
C2006       C  0.67678040  0.51542791  0.02860791     0.29300
F2007       F  0.69801341  0.53845059  0.01891695    -0.20100
H2008       H  0.64068146  0.53243539  0.99864698     0.17600
H2009       H  0.66841323  0.95603801  0.08036306     0.17600
F2010       F  0.61190956  0.94846685  0.05893481    -0.20100
C2011       C  0.82570842  0.01130214  0.03962758    -0.21600
C2012       C  0.85172647  0.02364479  0.05608172    -0.09600
C2013       C  0.84632588  0.03549152  0.08649067     0.29200
C2014       C  0.81540845  0.03416791  0.10040132    -0.21600
C2015       C  0.78957046  0.02087129  0.08422839    -0.09600
C2016       C  0.79498806  0.00984662  0.05347574     0.29300
F2017       F  0.77057355  0.99827052  0.03648683    -0.20100
H2018       H  0.82941618  0.00195315  0.01609576     0.17600
H2019       H  0.81173181  0.04295805  0.12414091     0.17600
F2020       F  0.87104776  0.04656681  0.10334985    -0.20100
C2021       C  0.87724492  0.11775086  0.45271604    -0.21600
C2022       C  0.91000460  0.11518979  0.44733386    -0.09600
C2023       C  0.92933335  0.14202730  0.44133068     0.29200
C2024       C  0.91614645  0.17163064  0.44313542    -0.21600
C2025       C  0.88349714  0.17458751  0.45117665    -0.09600
C2026       C  0.86395617  0.14709999  0.45449758     0.29300
F2027       F  0.83226522  0.14861978  0.46209832    -0.20100
H2028       H  0.86231036  0.09707440  0.45784267     0.17600
H2029       H  0.93247262  0.19108954  0.93776227     0.17600
F2030       F  0.96105432  0.13853977  0.93302008    -0.20100
C2031       C  0.93695615  0.32899988  0.46971137    -0.21600
C2032       C  0.91873675  0.35583829  0.46648955    -0.09600
C2033       C  0.88545880  0.35187101  0.46342681     0.29200
C2034       C  0.87104320  0.32182544  0.46286527    -0.21600
C2035       C  0.88910679  0.29474575  0.46626353    -0.09600
C2036       C  0.92244105  0.29893694  0.47031555     0.29300
F2037       F  0.94111293  0.27429685  0.47656541    -0.20100
H2038       H  0.96238279  0.33134188  0.47323969     0.17600
H2039       H  0.84560815  0.31996034  0.45952014     0.17600
F2040       F  0.86675158  0.37716353  0.46065880    -0.20100
C2041       C  0.52316952  0.15819205  0.50506484    -0.21600
C2042       C  0.54092880  0.13119939  0.49956371    -0.09600
C2043       C  0.57401038  0.13507789  0.49298008     0.29200
C2044       C  0.58832550  0.16484109  0.49008698    -0.21600
C2045       C  0.57089727  0.19221151  0.49486285    -0.09600
C2046       C  0.53777822  0.18835389  0.50285795     0.29300
F2047       F  0.51872457  0.21313261  0.50703861    -0.20100
H2048       H  0.99795854  0.15577264  0.50961452     0.17600
H2049       H  0.61360950  0.16648767  0.48380539     0.17600
F2050       F  0.59289128  0.10998609  0.48900074    -0.20100
C2051       C  0.58292738  0.36912486  0.48651827    -0.21600
C2052       C  0.56131182  0.37475348  0.01214246    -0.09600
C2053       C  0.55136765  0.34975700  0.03235642     0.29200
C2054       C  0.56226099  0.31947095  0.02652249    -0.21600
C2055       C  0.58309841  0.31374155  0.50047517    -0.09600
C2056       C  0.59357966  0.33909144  0.48069141     0.29300
F2057       F  0.61167136  0.33478891  0.45389003    -0.20100
H2058       H  0.58974547  0.38771011  0.46963331     0.17600
H2059       H  0.55375458  0.30041097  0.04203979     0.17600
F2060       F  0.52913209  0.35407119  0.05590044    -0.20100
C2061       C  0.50163345  0.09712105  0.15546514    -0.21600
C2062       C  0.98444958  0.08318879  0.18163164    -0.09600
C2063       C  0.97117981  0.05276581  0.17757503     0.29200
C2064       C  0.97617865  0.03661593  0.14903856    -0.21600
C2065       C  0.99370439  0.05053649  0.12334339    -0.09600
C2066       C  0.50592295  0.08135102  0.12659171     0.29300
F2067       F  0.52131366  0.09656351  0.10179331    -0.20100
H2068       H  0.51184838  0.12049659  0.15752393     0.17600
H2069       H  0.96480962  0.01379339  0.14641552     0.17600
F2070       F  0.95184231  0.03915633  0.20059179    -0.20100
C2071       C  0.50812999  0.06152658  0.30496476    -0.21600
C2072       C  0.99159055  0.08949876  0.30291993    -0.09600
C2073       C  0.98978635  0.10855324  0.33005726     0.29200
C2074       C  0.00176447  0.09846327  0.35863952    -0.21600
C2075       C  0.01583559  0.06932756  0.36108162    -0.09600
C2076       C  0.51980532  0.05149894  0.33390201     0.29300
F2077       F  0.53336646  0.02305609  0.33594480    -0.20100
H2078       H  0.51273825  0.04723178  0.28455185     0.17600
H2079       H  0.99757681  0.11228338  0.37963290     0.17600
F2080       F  0.97714980  0.13746372  0.32884166    -0.20100
C2081       C  0.88598686  0.19849052  0.26181496    -0.21600
C2082       C  0.86648011  0.19597590  0.23557843    -0.09600
C2083       C  0.87729194  0.17750362  0.20983860     0.29200
C2084       C  0.90564974  0.16078037  0.21132292    -0.21600
C2085       C  0.92391792  0.16169245  0.23841236    -0.09600
C2086       C  0.91427800  0.18153614  0.26331014     0.29300
F2087       F  0.93210524  0.18427764  0.28938940    -0.20100
H2088       H  0.87875078  0.21263016  0.28174922     0.17600
H2089       H  0.91257452  0.14596405  0.19179349     0.17600
F2090       F  0.86017416  0.17503329  0.18322178    -0.20100
C2091       C  0.56275512  0.14875206  0.21413799    -0.21600
C2092       C  0.53677780  0.16419113  0.22790167    -0.09600
C2093       C  0.54269300  0.18992416  0.24752415     0.29200
C2094       C  0.57392788  0.19848565  0.25492963    -0.21600
C2095       C  0.59971524  0.18161626  0.24288513    -0.09600
C2096       C  0.59389664  0.15708045  0.22183271     0.29300
F2097       F  0.61851550  0.14133733  0.20849080    -0.20100
H2098       H  0.55876037  0.12810210  0.20007558     0.17600
H2099       H  0.57806329  0.21876742  0.26946844     0.17600
F2100       F  0.51803420  0.20458234  0.26216111    -0.20100
C2101       C  0.98530765  0.10370886  0.77137343     0.86200
C2102       C  0.95374116  0.12097463  0.76962999    -0.54000
C2103       C  0.95053955  0.13812500  0.74229685     0.09100
C2104       C  0.47927766  0.13491502  0.71789029     0.20100
C2105       C  0.98599640  0.08294368  0.74177053    -0.54700
C2106       C  0.98296836  0.09889093  0.71352264     0.09300
C2107       C  0.51117408  0.12836916  0.76427052    -0.54300
C2108       C  0.50852531  0.14475107  0.73707593     0.09800
H2109       H  0.93580720  0.12046193  0.78885592     0.14300
H2110       H  0.47712760  0.14861902  0.69554742     0.00100
H2111       H  0.98958693  0.05797877  0.74279758     0.14600
H2112       H  0.53134822  0.13192402  0.77956131     0.14400
O2113       O  0.53333490  0.05030269  0.91172322    -0.80400
O2114       O  0.87894618  0.46659482  0.96732244    -0.81900
O2115       O  0.95840089  0.48402450  0.88306784    -0.79000
O2116       O  0.92756781  0.06465447  0.93435155    -0.77400
O2117       O  0.93360518  0.08303018  0.98459416    -0.79100
O2118       O  0.98973324  0.44264560  0.89475687    -0.80100
O2119       O  0.89613875  0.49756344  0.92529962    -0.81400
O2120       O  0.98216425  0.04261944  0.89561086    -0.81700
Eu2121     Eu  0.95037239  0.01259708  0.93361942     2.39200
O2122       O  0.92950667  0.01292872  0.98547170    -0.89200
O2123       O  0.00277646  0.49365009  0.93253126    -0.92800
C2124       C  0.01083704  0.05337942  0.89197087     1.01900
C2125       C  0.87457271  0.48101371  0.94063562     1.01700
C2126       C  0.97471080  0.45999243  0.87534261     1.01600
C2127       C  0.92468136  0.08552349  0.95583363     0.99500
H2128       H  0.93475030  0.44821122  0.93595538     0.29300
O2129       O  0.94773732  0.46064333  0.94975025    -1.01600
H2130       H  0.98499292  0.06535711  0.95550111     0.29300
O2131       O  0.98324852  0.04447631  0.96453512    -1.04100
O2132       O  0.92618714  0.43372760  0.55479833    -0.81400
O2133       O  0.58317854  0.01531654  0.99525053    -0.80900
O2134       O  0.96309368  0.39432683  0.95471332    -0.79300
O2135       O  0.90603682  0.04098671  0.54072929    -0.82700
O2136       O  0.99812046  0.09336440  0.51124736    -0.80500
O2137       O  0.55471211  0.44735663  0.92476177    -0.79200
O2138       O  0.53677375  0.42210954  0.53114127    -0.80700
O2139       O  0.50639520  0.01043588  0.58460212    -0.82600
O2140       O  0.53135342  0.40593401  0.98060712    -0.79400
O2141       O  0.97729351  0.05307197  0.57074036    -0.82000
O2142       O  0.91878809  0.40707802  0.98453786    -0.77800
O2143       O  0.57370194  0.49733647  0.93276592    -0.77800
O2144       O  0.54116078  0.07872049  0.98101673    -0.77400
O2145       O  0.88713826  0.48985204  0.53257847    -0.80900
O2146       O  0.97729108  0.44113922  0.57127160    -0.80400
O2147       O  0.56729430  0.48486007  0.53767394    -0.78700
Eu2148     Eu  0.92575868  0.46121728  0.50304207     2.39800
Eu2149     Eu  0.53494467  0.02457298  0.96464374     2.39600
Eu2150     Eu  0.99989607  0.44184525  0.95116146     2.38400
Eu2151     Eu  0.96165297  0.04601843  0.51624608     2.39900
Eu2152     Eu  0.50992554  0.47403762  0.53615681     2.39800
O2153       O  0.51386960  0.02640803  0.51705382    -0.93100
O2154       O  0.97806842  0.44210763  0.00339162    -0.92000
C2155       C  0.94867863  0.42990778  0.57447440     1.02100
C2156       C  0.58934953  0.99985329  0.52035638     1.00800
C2157       C  0.93516997  0.38772706  0.96795054     1.00200
C2158       C  0.88433793  0.01866325  0.54298192     1.02200
C2159       C  0.52545763  0.09897535  0.99707919     1.01100
C2160       C  0.57632532  0.46969528  0.92165327     0.99900
C2161       C  0.54119187  0.40269642  0.50804817     1.00000
C2162       C  0.99326079  0.03733119  0.59070113     1.02600
H2163       H  0.55157516  0.46429903  0.98430270     0.30000
O2164       O  0.53067268  0.47317037  0.98433032    -1.05300
H2165       H  0.94862598  0.49344299  0.55658359     0.32000
O2166       O  0.95789713  0.49328256  0.53534528    -1.07800
C2167       C  0.71045643  0.04474685  0.62394748     0.86200
C2168       C  0.69219980  0.03531381  0.59508872    -0.54000
C2169       C  0.70306734  0.00980044  0.58007555     0.09100
C2170       C  0.73064285  0.49376488  0.59426530     0.20100
C2171       C  0.70871919  0.01522462  0.64568498    -0.54700
C2172       C  0.71754574  0.48841777  0.62875769     0.09300
C2173       C  0.74559192  0.04732278  0.61274359    -0.54300
C2174       C  0.75676117  0.02152199  0.59803557     0.09800
H2175       H  0.67134312  0.04767319  0.58744533     0.14300
H2176       H  0.73895383  0.47225043  0.58248818     0.00100
H2177       H  0.70107002  0.01481182  0.67035672     0.14600
H2178       H  0.76011554  0.06852528  0.61521671     0.14400
O2179       O  0.64894751  0.19875382  0.76529763    -0.80400
O2180       O  0.72704648  0.28788054  0.62471309    -0.81900
O2181       O  0.63263682  0.27538400  0.69134590    -0.79000
O2182       O  0.67700802  0.19000574  0.66566934    -0.77400
O2183       O  0.72546478  0.16843451  0.67456854    -0.79100
O2184       O  0.64459342  0.31429264  0.72593041    -0.80100
O2185       O  0.68342132  0.25539067  0.63407393    -0.81400
O2186       O  0.63684163  0.21094748  0.71406533    -0.81700
Eu2187     Eu  0.67903105  0.24132847  0.69027564     2.39200
O2188       O  0.73205555  0.23932451  0.67262709    -0.89200
O2189       O  0.67528361  0.25694243  0.74348521    -0.92800
C2190       C  0.63054204  0.19813301  0.74107522     1.01900
C2191       C  0.70239143  0.27213409  0.61571285     1.01700
C2192       C  0.62607524  0.30050974  0.70649600     1.01600
C2193       C  0.69699311  0.16770450  0.66422172     0.99500
H2194       H  0.68904622  0.30623259  0.67886286     0.29300
O2195       O  0.70044053  0.29224314  0.69244427    -1.01600
H2196       H  0.69531310  0.18540786  0.72353707     0.29300
O2197       O  0.70544704  0.20594474  0.72332717    -1.04100
O2198       O  0.80840343  0.31315372  0.68071935    -0.81400
O2199       O  0.73264349  0.22996264  0.82661784    -0.80900
O2200       O  0.70586695  0.35669643  0.71336107    -0.79300
O2201       O  0.78530707  0.21042262  0.65038386    -0.82700
O2202       O  0.75335351  0.15550068  0.74040271    -0.80500
O2203       O  0.66813664  0.30009966  0.79899162    -0.79200
O2204       O  0.77852235  0.32342848  0.78487440    -0.80700
O2205       O  0.82716770  0.23328893  0.75275777    -0.82600
O2206       O  0.72809538  0.34172150  0.77852542    -0.79400
O2207       O  0.81329692  0.19529190  0.71789556    -0.82000
O2208       O  0.74062969  0.34556772  0.67238566    -0.77800
O2209       O  0.66924405  0.24822713  0.81373491    -0.77800
O2210       O  0.72014623  0.16821133  0.78205232    -0.77400
O2211       O  0.78535985  0.26265265  0.63736678    -0.80900
O2212       O  0.82282472  0.30062049  0.73111140    -0.80400
O2213       O  0.77911077  0.25770731  0.81471204    -0.78700
Eu2214     Eu  0.75425577  0.29027933  0.67558215     2.39800
Eu2215     Eu  0.70339483  0.22238419  0.77591315     2.39600
Eu2216     Eu  0.69780461  0.30746384  0.74585346     2.38400
Eu2217     Eu  0.75863816  0.20342894  0.70455968     2.39900
Eu2218     Eu  0.78099767  0.27081353  0.75878355     2.39800
O2219       O  0.75734217  0.22017226  0.75773465    -0.93100
O2220       O  0.75199734  0.30623944  0.72828239    -0.92000
C2221       C  0.82808861  0.31302772  0.70352823     1.02100
C2222       C  0.75883277  0.24442315  0.83451060     1.00800
C2223       C  0.72285607  0.36456319  0.68803094     1.00200
C2224       C  0.79236595  0.23428202  0.63165103     1.02200
C2225       C  0.73810656  0.14877011  0.76715160     1.01100
C2226       C  0.66141010  0.27664110  0.81841590     0.99900
C2227       C  0.75635076  0.34384923  0.78915917     1.00000
C2228       C  0.83345762  0.20871494  0.73579556     1.02600
H2229       H  0.72619463  0.28086385  0.79733718     0.30000
O2230       O  0.72704327  0.27273441  0.77616938    -1.05300
H2231       H  0.80360471  0.25314210  0.69796926     0.32000
O2232       O  0.78193891  0.25407734  0.70625936    -1.07800
C2233       C  0.58877653  0.22380524  0.98824434     0.86200
C2234       C  0.62071002  0.22459196  0.50747188    -0.54000
C2235       C  0.63961997  0.25071999  0.50195722     0.09100
C2236       C  0.62535126  0.27377654  0.97773327     0.20100
C2237       C  0.57295645  0.25493547  0.99773244    -0.54700
C2238       C  0.59223063  0.28116026  0.99221195     0.09300
C2239       C  0.59949632  0.22919010  0.95333306    -0.54300
C2240       C  0.61822400  0.25544325  0.94736235     0.09800
H2241       H  0.62557487  0.20747234  0.52587283     0.14300
H2242       H  0.64154440  0.29441849  0.97376853     0.00100
H2243       H  0.54925714  0.25676908  0.00823660     0.14600
H2244       H  0.59214148  0.21358436  0.93472702     0.14400
C2245       C  0.98004905  0.40000973  0.75484655     0.86200
C2246       C  0.01057739  0.38156492  0.74854497    -0.54400
C2247       C  0.00874674  0.36139813  0.72418772     0.09100
C2248       C  0.97665988  0.36077793  0.70833970     0.20100
C2249       C  0.97309838  0.41559869  0.72257819    -0.54700
C2250       C  0.97146113  0.39468087  0.69832944     0.09300
C2251       C  0.95375412  0.37428129  0.75952357    -0.54300
C2252       C  0.95063168  0.35512488  0.73407511     0.09800
H2253       H  0.53256021  0.38299933  0.76148592     0.14300
H2254       H  0.97540063  0.34356354  0.68899078     0.00100
H2255       H  0.96898555  0.44042252  0.71947476     0.14600
H2256       H  0.93585875  0.37459288  0.77876219     0.14400
C2257       C  0.87001296  0.20568053  0.95964775     0.86200
C2258       C  0.84154339  0.21151191  0.93931450    -0.54000
C2259       C  0.82465690  0.23713969  0.94703352     0.09100
C2260       C  0.83868863  0.25564925  0.97500619     0.20100
C2261       C  0.89035205  0.23623375  0.95639588    -0.54700
C2262       C  0.87445679  0.26275370  0.96500497     0.09300
C2263       C  0.85707265  0.20538162  0.99385140    -0.54300
C2264       C  0.84015216  0.23076547  0.00204457     0.09800
H2265       H  0.83549927  0.19655853  0.91967353     0.14300
H2266       H  0.82478486  0.27637320  0.98182855     0.00100
H2267       H  0.91480614  0.23708969  0.94743902     0.14600
H2268       H  0.85930010  0.18512369  0.50965522     0.14400
C2269       C  0.73841460  0.02514452  0.83300911     0.86200
C2270       C  0.75853075  0.02745052  0.86257490    -0.54000
C2271       C  0.75598826  0.50029827  0.87953782     0.09100
C2272       C  0.73226671  0.47515304  0.86848606     0.20100
C2273       C  0.74687340  0.49403174  0.81490128    -0.54700
C2274       C  0.74463207  0.46794196  0.83467384     0.09300
C2275       C  0.70428511  0.01644836  0.84542893    -0.54300
C2276       C  0.70003804  0.49091960  0.86371110     0.09800
H2277       H  0.77534318  0.04685636  0.86531169     0.14300
H2278       H  0.73051955  0.45472328  0.88504844     0.00100
H2279       H  0.75447045  0.49266088  0.79019801     0.14600
H2280       H  0.68366890  0.02981711  0.83916618     0.14400
C2281       C  0.60637022  0.26182037  0.88937101    -0.21600
C2282       C  0.62758078  0.26638318  0.91422468    -0.09600
C2283       C  0.65784250  0.28017063  0.90671520     0.29200
C2284       C  0.66697896  0.28776230  0.87511685    -0.21600
C2285       C  0.64650837  0.28141406  0.85020002    -0.09600
C2286       C  0.61582907  0.26872923  0.85773066     0.29300
F2287       F  0.59588642  0.26079257  0.83431649    -0.20100
H2288       H  0.58272410  0.25169928  0.89426494     0.17600
H2289       H  0.69131728  0.29589548  0.86979516     0.17600
F2290       F  0.67979873  0.28361954  0.92932949    -0.20100
C2291       C  0.70079523  0.24423269  0.56511387    -0.21600
C2292       C  0.69515605  0.27169231  0.58197851    -0.09600
C2293       C  0.67595966  0.29463162  0.56901440     0.29200
C2294       C  0.66059402  0.28902017  0.54066726    -0.21600
C2295       C  0.66360677  0.26015989  0.52537409    -0.09600
C2296       C  0.68517408  0.23842320  0.53698728     0.29300
F2297       F  0.68924890  0.21060520  0.52249162    -0.20100
H2298       H  0.71534042  0.22618308  0.57506877     0.17600
H2299       H  0.64399031  0.30606684  0.53243807     0.17600
F2300       F  0.66942691  0.32091601  0.58540352    -0.20100
C2301       C  0.75987882  0.22275386  0.89024851    -0.21600
C2302       C  0.76706295  0.24709760  0.86836839    -0.09600
C2303       C  0.78592653  0.27295232  0.87812063     0.29200
C2304       C  0.80131459  0.27194043  0.90700744    -0.21600
C2305       C  0.79778605  0.24547192  0.92679862    -0.09600
C2306       C  0.77498721  0.22200401  0.91937378     0.29300
F2307       F  0.77036211  0.19644220  0.93863920    -0.20100
H2308       H  0.74487030  0.20303166  0.88376964     0.17600
H2309       H  0.81859544  0.29027103  0.91219231     0.17600
F2310       F  0.79141458  0.29830688  0.85868678    -0.20100
C2311       C  0.79779222  0.20598897  0.58055357    -0.21600
C2312       C  0.80776040  0.23033352  0.60001701    -0.09600
C2313       C  0.82712881  0.25506743  0.58657009     0.29200
C2314       C  0.83549942  0.25576334  0.55425565    -0.21600
C2315       C  0.82527744  0.23165442  0.53481583    -0.09600
C2316       C  0.80650320  0.20657488  0.54820185     0.29300
F2317       F  0.79618357  0.18288882  0.52977698    -0.20100
H2318       H  0.78208352  0.18732752  0.59003391     0.17600
H2319       H  0.85075117  0.27468650  0.54456461     0.17600
F2320       F  0.83752491  0.27898676  0.60470345    -0.20100
C2321       C  0.73353795  0.41049059  0.83925911    -0.21600
C2322       C  0.75208681  0.43526768  0.82541616    -0.09600
C2323       C  0.77714107  0.42809350  0.80371489     0.29200
C2324       C  0.78173197  0.39693091  0.79454181    -0.21600
C2325       C  0.76173233  0.37261434  0.80721411    -0.09600
C2326       C  0.73848642  0.37965269  0.83065277     0.29300
F2327       F  0.71815727  0.35687812  0.84280633    -0.20100
H2328       H  0.71374327  0.41492765  0.85558580     0.17600
H2329       H  0.79922162  0.39215234  0.77584800     0.17600
F2330       F  0.79661969  0.45108843  0.79079416    -0.20100
C2331       C  0.72724529  0.11234906  0.81374438    -0.21600
C2332       C  0.74051182  0.11691283  0.78283340    -0.09600
C2333       C  0.75471417  0.09092234  0.76819724     0.29200
C2334       C  0.75405684  0.06115474  0.78363293    -0.21600
C2335       C  0.73976608  0.05666230  0.81430339    -0.09600
C2336       C  0.72706494  0.08320703  0.82919782     0.29300
F2337       F  0.71404915  0.08102064  0.85911453    -0.20100
H2338       H  0.71668812  0.13156370  0.82642855     0.17600
H2339       H  0.76505845  0.04192828  0.77150212     0.17600
F2340       F  0.76909263  0.09409233  0.73898435    -0.20100
C2341       C  0.86331467  0.35671464  0.71437180    -0.21600
C2342       C  0.85934548  0.32802031  0.69955535    -0.09600
C2343       C  0.88579571  0.30911025  0.69404817     0.29200
C2344       C  0.91534376  0.31768009  0.70604902    -0.21600
C2345       C  0.91868813  0.34515697  0.72355559    -0.09600
C2346       C  0.89268152  0.36541293  0.72616001     0.29300
F2347       F  0.89531284  0.39360981  0.74017342    -0.20100
H2348       H  0.84291607  0.37121279  0.71922901     0.17600
H2349       H  0.93537534  0.30244780  0.70247835     0.17600
F2350       F  0.88229861  0.28115565  0.67953549    -0.20100
C2351       C  0.56661365  0.29713998  0.70568778    -0.21600
C2352       C  0.59517194  0.31501083  0.70223501    -0.09600
C2353       C  0.59404414  0.34778770  0.70039901     0.29200
C2354       C  0.56518415  0.36252706  0.70524576    -0.21600
C2355       C  0.53709838  0.34483989  0.71199346    -0.09600
C2356       C  0.53750227  0.31206765  0.71057607     0.29300
F2357       F  0.51042662  0.29462994  0.71684417    -0.20100
H2358       H  0.56716366  0.27183095  0.70724139     0.17600
H2359       H  0.56500135  0.38787572  0.70556654     0.17600
F2360       F  0.62121815  0.36557389  0.69602412    -0.20100
C2361       C  0.69536480  0.41612911  0.68062916    -0.21600
C2362       C  0.72204706  0.39734172  0.67516605    -0.09600
C2363       C  0.74750515  0.40956528  0.65548432     0.29200
C2364       C  0.74576604  0.43910607  0.64100525    -0.21600
C2365       C  0.71883245  0.45749868  0.64568748    -0.09600
C2366       C  0.69366510  0.44586002  0.66600103     0.29300
F2367       F  0.66682602  0.46253792  0.67061450    -0.20100
H2368       H  0.67534577  0.40740843  0.69542547     0.17600
H2369       H  0.76578767  0.44769904  0.62611725     0.17600
F2370       F  0.77437834  0.39305684  0.65022562    -0.20100
C2371       C  0.70188639  0.10105751  0.61211432    -0.21600
C2372       C  0.69878214  0.07623420  0.63471953    -0.09600
C2373       C  0.68584357  0.08252365  0.66513317     0.29200
C2374       C  0.68043786  0.11340429  0.67349612    -0.21600
C2375       C  0.68713225  0.13796504  0.65167999    -0.09600
C2376       C  0.69605758  0.13162680  0.62047360     0.29300
F2377       F  0.70305496  0.15528521  0.59929133    -0.20100
H2378       H  0.71090926  0.09691494  0.58820505     0.17600
H2379       H  0.67408281  0.11841548  0.69797214     0.17600
F2380       F  0.68003558  0.05987488  0.68748697    -0.20100
C2381       C  0.96652872  0.39045266  0.61019300    -0.21600
C2382       C  0.94315519  0.41228483  0.60388003    -0.09600
C2383       C  0.92658625  0.42638077  0.62913607     0.29200
C2384       C  0.93566214  0.42074319  0.66027388    -0.21600
C2385       C  0.96178543  0.40175031  0.66598100    -0.09600
C2386       C  0.97696861  0.38649226  0.64067392     0.29300
F2387       F  0.50428762  0.37022650  0.64510453    -0.20100
H2388       H  0.98019840  0.38026670  0.59084354     0.17600
H2389       H  0.92313159  0.43196146  0.67970239     0.17600
F2390       F  0.90434277  0.44811560  0.62343069    -0.20100
C2391       C  0.95042463  0.45070420  0.82307846    -0.21600
C2392       C  0.97725257  0.45151630  0.84188855    -0.09600
C2393       C  0.00667617  0.44203854  0.82912448     0.29200
C2394       C  0.00841481  0.42829793  0.79955393    -0.21600
C2395       C  0.98059000  0.42270988  0.78245125    -0.09600
C2396       C  0.95211548  0.43670369  0.79334474     0.29300
F2397       F  0.92537645  0.43509607  0.77623609    -0.20100
H2398       H  0.92777128  0.45912471  0.83214442     0.17600
H2399       H  0.03173289  0.42160924  0.79111865     0.17600
F2400       F  0.03372436  0.44525068  0.84571708    -0.20100
C2401       C  0.61069370  0.47231307  0.87259154    -0.21600
C2402       C  0.60721619  0.46457020  0.90493264    -0.09600
C2403       C  0.63482662  0.46190467  0.92274561     0.29200
C2404       C  0.66521187  0.46856093  0.90877866    -0.21600
C2405       C  0.66851683  0.47862326  0.87697432    -0.09600
C2406       C  0.64099513  0.47900270  0.85860426     0.29300
F2407       F  0.64320911  0.48693616  0.82732043    -0.20100
H2408       H  0.58975980  0.47536756  0.85864651     0.17600
H2409       H  0.68589434  0.46800732  0.92343419     0.17600
F2410       F  0.63211483  0.45558714  0.95436622    -0.20100
C2411       C  0.81435449  0.48174922  0.94397833    -0.21600
C2412       C  0.84301051  0.47975834  0.92580394    -0.09600
C2413       C  0.84182975  0.48150140  0.89247600     0.29200
C2414       C  0.81320145  0.48719440  0.87796818    -0.21600
C2415       C  0.78506222  0.49142661  0.89614059    -0.09600
C2416       C  0.78548337  0.48773062  0.92923325     0.29300
F2417       F  0.75844337  0.49144153  0.94725880    -0.20100
H2418       H  0.81456487  0.48038616  0.96953513     0.17600
H2419       H  0.81314668  0.48922128  0.85233954     0.17600
F2420       F  0.86867232  0.47878798  0.87381420    -0.20100
C2421       C  0.64615111  0.51611432  0.51446908    -0.21600
C2422       C  0.62316723  0.99659909  0.52869139    -0.09600
C2423       C  0.63223487  0.97240651  0.54948875     0.29200
C2424       C  0.66268041  0.97287732  0.56189372    -0.21600
C2425       C  0.68417154  0.99755985  0.55411887    -0.09600
C2426       C  0.67681530  0.51649418  0.52644373     0.29300
F2427       F  0.69796404  0.53959294  0.51675246    -0.20100
H2428       H  0.64040019  0.53360033  0.49686590     0.17600
H2429       H  0.66771963  0.95654152  0.58086083     0.17600
F2430       F  0.61108945  0.94951010  0.55967924    -0.20100
C2431       C  0.82602956  0.01138012  0.53959025    -0.21600
C2432       C  0.85190313  0.02419941  0.55592928    -0.09600
C2433       C  0.84631793  0.03650446  0.58610194     0.29200
C2434       C  0.81535554  0.03519009  0.59989272    -0.21600
C2435       C  0.78965745  0.02145285  0.58383489    -0.09600
C2436       C  0.79527866  0.00990007  0.55333022     0.29300
F2437       F  0.77104885  0.99776003  0.53646371    -0.20100
H2438       H  0.82988113  0.00166753  0.51623466     0.17600
H2439       H  0.81155201  0.04431516  0.62347776     0.17600
F2440       F  0.87089880  0.04802427  0.60287566    -0.20100
C2441       C  0.87774933  0.11770038  0.95486188    -0.21600
C2442       C  0.91015765  0.11478545  0.94770980    -0.09600
C2443       C  0.92944395  0.14136017  0.94026602     0.29200
C2444       C  0.91664432  0.17112897  0.94238211    -0.21600
C2445       C  0.88444418  0.17443218  0.95203728    -0.09600
C2446       C  0.86482948  0.14715133  0.95680423     0.29300
F2447       F  0.83350541  0.14902118  0.96584529    -0.20100
H2448       H  0.86289408  0.09722782  0.96110063     0.17600
H2449       H  0.93207537  0.19170869  0.43984494     0.17600
F2450       F  0.96129536  0.13959749  0.43587328    -0.20100
C2451       C  0.93843225  0.32899237  0.96875616    -0.21600
C2452       C  0.92036793  0.35581585  0.96469883    -0.09600
C2453       C  0.88718347  0.35188483  0.96092121     0.29200
C2454       C  0.87269260  0.32186674  0.96065285    -0.21600
C2455       C  0.89057985  0.29482680  0.96502705    -0.09600
C2456       C  0.92380917  0.29898130  0.96965268     0.29300
F2457       F  0.94218235  0.27438849  0.97690157    -0.20100
H2458       H  0.96374780  0.33134107  0.97286894     0.17600
H2459       H  0.84733278  0.31996870  0.95687764     0.17600
F2460       F  0.86863093  0.37719009  0.95733903    -0.20100
C2461       C  0.52308318  0.15782739  0.00459161    -0.21600
C2462       C  0.54080104  0.13098626  0.99819866    -0.09600
C2463       C  0.57360898  0.13515636  0.99018147     0.29200
C2464       C  0.58768011  0.16500833  0.98726059    -0.21600
C2465       C  0.57030557  0.19219860  0.99312595    -0.09600
C2466       C  0.53745948  0.18808387  0.00218769     0.29300
F2467       F  0.51845812  0.21269172  0.00753491    -0.20100
H2468       H  0.99728426  0.15571090  0.01084302     0.17600
H2469       H  0.61277267  0.16689254  0.98018729     0.17600
F2470       F  0.59250866  0.11029896  0.98487815    -0.20100
C2471       C  0.58390177  0.36938420  0.98759598    -0.21600
C2472       C  0.56081129  0.37476163  0.51141857    -0.09600
C2473       C  0.55169111  0.35009880  0.53239725     0.29200
C2474       C  0.56295847  0.31984671  0.52705573    -0.21600
C2475       C  0.58279767  0.31367613  0.00015687    -0.09600
C2476       C  0.59407264  0.33931814  0.98116815     0.29300
F2477       F  0.61244381  0.33537180  0.95448009    -0.20100
H2478       H  0.59131688  0.38824993  0.97125809     0.17600
H2479       H  0.55504151  0.30101941  0.54313843     0.17600
F2480       F  0.52991361  0.35463328  0.55630403    -0.20100
C2481       C  0.50167620  0.09760799  0.65560364    -0.21600
C2482       C  0.98607747  0.08274944  0.68194612    -0.09600
C2483       C  0.97467572  0.05160065  0.67804319     0.29200
C2484       C  0.97949067  0.03607396  0.64913466    -0.21600
C2485       C  0.99482904  0.05131665  0.62290780    -0.09600
C2486       C  0.50565758  0.08220536  0.62648917     0.29300
F2487       F  0.51995881  0.09803161  0.60147239    -0.20100
H2488       H  0.51108443  0.12130278  0.65754396     0.17600
H2489       H  0.96951663  0.01263143  0.64669077     0.17600
F2490       F  0.95714418  0.03658678  0.70155163    -0.20100
C2491       C  0.51025470  0.06193721  0.80553769    -0.21600
C2492       C  0.99264637  0.08956143  0.80343854    -0.09600
C2493       C  0.98975125  0.10853655  0.83055517     0.29200
C2494       C  0.00144413  0.09876943  0.85937809    -0.21600
C2495       C  0.01632249  0.07005573  0.86206827    -0.09600
C2496       C  0.52179831  0.05205580  0.83457454     0.29300
F2497       F  0.53599544  0.02393185  0.83668095    -0.20100
H2498       H  0.51540692  0.04781133  0.78512387     0.17600
H2499       H  0.99639164  0.11241231  0.88031725     0.17600
F2500       F  0.97615217  0.13699573  0.82913895    -0.20100
C2501       C  0.88525941  0.19652280  0.76216094    -0.21600
C2502       C  0.86561917  0.19394759  0.73603938    -0.09600
C2503       C  0.87607657  0.17500905  0.71049589     0.29200
C2504       C  0.90440927  0.15822847  0.71193402    -0.21600
C2505       C  0.92296145  0.15946397  0.73881327    -0.09600
C2506       C  0.91346701  0.17944233  0.76364325     0.29300
F2507       F  0.93143359  0.18228807  0.78960952    -0.20100
H2508       H  0.87823973  0.21089682  0.78198886     0.17600
H2509       H  0.91117534  0.14323047  0.69249802     0.17600
F2510       F  0.85869999  0.17221517  0.68407579    -0.20100
C2511       C  0.56163547  0.15083296  0.71320005    -0.21600
C2512       C  0.53587002  0.16540613  0.72832028    -0.09600
C2513       C  0.54203333  0.19055872  0.74864342     0.29200
C2514       C  0.57339139  0.19908522  0.75565110    -0.21600
C2515       C  0.59902549  0.18286727  0.74235301    -0.09600
C2516       C  0.59290268  0.15921612  0.72035886     0.29300
F2517       F  0.61736061  0.14438985  0.70558708    -0.20100
H2518       H  0.55749779  0.13070324  0.69844492     0.17600
H2519       H  0.57771307  0.21878100  0.77092264     0.17600
F2520       F  0.51756946  0.20443666  0.76443431    -0.20100
C2521       C  0.98427253  0.60168436  0.27057960     0.86200
C2522       C  0.95406533  0.62107445  0.26911906    -0.54000
C2523       C  0.95178798  0.63854000  0.24187710     0.09100
C2524       C  0.47986898  0.63350981  0.21740312     0.20100
C2525       C  0.98328644  0.58102872  0.24096947    -0.54700
C2526       C  0.98132745  0.59741396  0.21280794     0.09300
C2527       C  0.51187098  0.62449203  0.26322436    -0.54300
C2528       C  0.50995323  0.64128422  0.23625146     0.09800
H2529       H  0.93619741  0.62138449  0.28838138     0.14300
H2530       H  0.47833247  0.64750971  0.19516656     0.00100
H2531       H  0.98531345  0.55584500  0.24185283     0.14600
H2532       H  0.53232815  0.62685671  0.27837319     0.14400
O2533       O  0.53289967  0.54914599  0.41064063    -0.80400
O2534       O  0.87855013  0.96859962  0.47301383    -0.81900
O2535       O  0.95528550  0.98241963  0.38483409    -0.79000
O2536       O  0.92690812  0.56533232  0.43416141    -0.77400
O2537       O  0.93405712  0.58376769  0.48421830    -0.79100
O2538       O  0.98852412  0.94241549  0.39618787    -0.80100
O2539       O  0.89317617  0.00139227  0.43139643    -0.81400
O2540       O  0.98129347  0.54245458  0.39483704    -0.81700
Eu2541     Eu  0.94922425  0.51295042  0.43272986     2.39200
O2542       O  0.92833905  0.51336068  0.48457202    -0.89200
O2543       O  0.00219098  0.99367595  0.43293750    -0.92800
C2544       C  0.01015858  0.55252887  0.39094966     1.01900
C2545       C  0.87231855  0.98521803  0.44820236     1.01700
C2546       C  0.97228969  0.95886808  0.37700648     1.01600
C2547       C  0.92502278  0.58644151  0.45553548     0.99500
H2548       H  0.93394955  0.94814744  0.43866007     0.29300
O2549       O  0.94743789  0.96066724  0.45191148    -1.01600
H2550       H  0.98444843  0.56535828  0.45468508     0.29300
O2551       O  0.98244316  0.54447094  0.46367438    -1.04100
O2552       O  0.92784906  0.93365580  0.05660292    -0.81400
O2553       O  0.58224317  0.51496322  0.49421413    -0.80900
O2554       O  0.96291763  0.89485550  0.45705649    -0.79300
O2555       O  0.90548768  0.53925448  0.04105697    -0.82700
O2556       O  0.99703228  0.59293846  0.01135081    -0.80500
O2557       O  0.55543495  0.94767195  0.42572820    -0.79200
O2558       O  0.53773515  0.92152402  0.03176709    -0.80700
O2559       O  0.50483663  0.50891563  0.08418153    -0.82600
O2560       O  0.53119437  0.90587646  0.48122308    -0.79400
O2561       O  0.97585234  0.55173659  0.07032870    -0.82000
O2562       O  0.91898038  0.90781414  0.48739248    -0.77800
O2563       O  0.57430733  0.99776323  0.43323159    -0.77800
O2564       O  0.54051404  0.57854776  0.48045484    -0.77400
O2565       O  0.88766428  0.99011477  0.03323746    -0.80900
O2566       O  0.97887692  0.94138076  0.07315470    -0.80400
O2567       O  0.56853312  0.98475832  0.03852281    -0.78700
Eu2568     Eu  0.92701801  0.96104582  0.00457283     2.39800
Eu2569     Eu  0.53396093  0.52434631  0.46385409     2.39600
Eu2570     Eu  0.00001255  0.94211462  0.45225356     2.38400
Eu2571     Eu  0.96067108  0.54517192  0.01570681     2.39900
Eu2572     Eu  0.51118863  0.97389656  0.03723184     2.39800
O2573       O  0.51323490  0.52563475  0.01719954    -0.93100
O2574       O  0.97914485  0.94282546  0.50491705    -0.92000
C2575       C  0.95032917  0.92997465  0.07637278     1.02100
C2576       C  0.58856967  0.49811901  0.02094689     1.00800
C2577       C  0.93514530  0.88838996  0.47069566     1.00200
C2578       C  0.88396083  0.51675542  0.04276150     1.02200
C2579       C  0.52477573  0.59868999  0.49669194     1.01100
C2580       C  0.57725428  0.96994790  0.42264422     0.99900
C2581       C  0.54233340  0.90222948  0.00853716     1.00000
C2582       C  0.99148932  0.53572372  0.09031510     1.02600
H2583       H  0.55199700  0.96506700  0.48453377     0.30000
O2584       O  0.53107258  0.97390430  0.48465595    -1.05300
H2585       H  0.94957082  0.99364185  0.05791390     0.32000
O2586       O  0.95888996  0.99343278  0.03669522    -1.07800
C2587       C  0.71014906  0.54506644  0.12255701     0.86200
C2588       C  0.69233000  0.53536367  0.09351093    -0.54000
C2589       C  0.70286214  0.50913409  0.07948902     0.09100
C2590       C  0.73117056  0.99430843  0.09644222     0.20100
C2591       C  0.70758108  0.51591622  0.14491579    -0.54700
C2592       C  0.71883357  0.98850968  0.13124982     0.09300
C2593       C  0.74547426  0.54690104  0.11195741    -0.54300
C2594       C  0.75646413  0.52059323  0.09807719     0.09800
H2595       H  0.67176162  0.54780982  0.08530038     0.14300
H2596       H  0.73965772  0.97301158  0.08441102     0.00100
H2597       H  0.69950931  0.51584087  0.16948132     0.14600
H2598       H  0.76025648  0.56796171  0.11421502     0.14400
O2599       O  0.65008533  0.69682114  0.26710257    -0.80400
O2600       O  0.72654852  0.78662313  0.12632024    -0.81900
O2601       O  0.63188127  0.77418622  0.19603564    -0.79000
O2602       O  0.67773921  0.69020519  0.16576374    -0.77400
O2603       O  0.72657084  0.66896088  0.17367862    -0.79100
O2604       O  0.64478100  0.81348436  0.22986410    -0.80100
O2605       O  0.68220774  0.75521320  0.13621152    -0.81400
O2606       O  0.63771417  0.70815424  0.21576402    -0.81700
Eu2607     Eu  0.67874068  0.74062718  0.19230491     2.39200
O2608       O  0.73171068  0.73860389  0.17437276    -0.89200
O2609       O  0.67570579  0.75627968  0.24549892    -0.92800
C2610       C  0.63173544  0.69536361  0.24287044     1.01900
C2611       C  0.70149877  0.77136656  0.11763287     1.01700
C2612       C  0.62560324  0.79929113  0.21138847     1.01600
C2613       C  0.69817590  0.66836596  0.16315485     0.99500
H2614       H  0.68863021  0.80567339  0.18092128     0.29300
O2615       O  0.70023385  0.79161263  0.19424378    -1.01600
H2616       H  0.69595202  0.68462242  0.22435618     0.29300
O2617       O  0.70591693  0.70522654  0.22459373    -1.04100
O2618       O  0.80814102  0.81182584  0.18094668    -0.81400
O2619       O  0.73349327  0.72902579  0.32803013    -0.80900
O2620       O  0.70671216  0.85618007  0.21540903    -0.79300
O2621       O  0.78593430  0.70969086  0.15166134    -0.82700
O2622       O  0.75203397  0.65412503  0.24031452    -0.80500
O2623       O  0.66993111  0.79914243  0.30137451    -0.79200
O2624       O  0.77989946  0.82319851  0.28538102    -0.80700
O2625       O  0.82813419  0.73305900  0.25352347    -0.82600
O2626       O  0.72936333  0.84137564  0.27959718    -0.79400
O2627       O  0.81422203  0.69508405  0.21862432    -0.82000
O2628       O  0.74079797  0.84489358  0.17396154    -0.77800
O2629       O  0.67023272  0.74703136  0.31530222    -0.77800
O2630       O  0.71957869  0.66724222  0.28235498    -0.77400
O2631       O  0.78512727  0.76181043  0.13833245    -0.80900
O2632       O  0.82332844  0.79892736  0.23101445    -0.80400
O2633       O  0.77980421  0.75704023  0.31607687    -0.78700
Eu2634     Eu  0.75395061  0.78942825  0.17685064     2.39800
Eu2635     Eu  0.70420669  0.72154980  0.27726051     2.39600
Eu2636     Eu  0.69861064  0.80675632  0.24776031     2.38400
Eu2637     Eu  0.75905609  0.70271490  0.20564795     2.39900
Eu2638     Eu  0.78170703  0.77005039  0.25997576     2.39800
O2639       O  0.75819701  0.71919552  0.25900630    -0.93100
O2640       O  0.75253636  0.80539336  0.22958065    -0.92000
C2641       C  0.82827567  0.81112902  0.20328950     1.02100
C2642       C  0.75956422  0.74371904  0.33592858     1.00800
C2643       C  0.72349963  0.86404532  0.18993320     1.00200
C2644       C  0.79267580  0.73350831  0.13281049     1.02200
C2645       C  0.73655651  0.64744746  0.26694246     1.01100
C2646       C  0.66288626  0.77548167  0.32044226     0.99900
C2647       C  0.75780951  0.84373891  0.28969678     1.00000
C2648       C  0.83451812  0.70869003  0.23632763     1.02600
H2649       H  0.72725246  0.78001131  0.29886088     0.30000
O2650       O  0.72793129  0.77188427  0.27769534    -1.05300
H2651       H  0.80349523  0.75235731  0.19882542     0.32000
O2652       O  0.78194640  0.75337867  0.20739301    -1.07800
C2653       C  0.58895107  0.72306453  0.49009808     0.86200
C2654       C  0.62140439  0.72355802  0.00858375    -0.54000
C2655       C  0.64036358  0.74967516  0.00313325     0.09100
C2656       C  0.62535749  0.77312449  0.47949600     0.20100
C2657       C  0.57296523  0.75418213  0.49938977    -0.54700
C2658       C  0.59212512  0.78045985  0.49376327     0.09300
C2659       C  0.59999285  0.72821214  0.45528741    -0.54300
C2660       C  0.61860561  0.75454571  0.44921310     0.09800
H2661       H  0.62613717  0.70648474  0.02707408     0.14300
H2662       H  0.64136078  0.79391295  0.47564419     0.00100
H2663       H  0.54931298  0.75587534  0.51009831     0.14600
H2664       H  0.59302794  0.71223465  0.43685898     0.14400
C2665       C  0.97775638  0.89728516  0.25742336     0.86200
C2666       C  0.00842604  0.87880668  0.25209728    -0.54400
C2667       C  0.00736330  0.85872887  0.22763975     0.09100
C2668       C  0.97592011  0.85822674  0.21066808     0.20100
C2669       C  0.97174597  0.91295973  0.22502770    -0.54700
C2670       C  0.97081062  0.89219141  0.20064964     0.09300
C2671       C  0.95139174  0.87152538  0.26127270    -0.54300
C2672       C  0.94933274  0.85233664  0.23572389     0.09800
H2673       H  0.52924411  0.88082531  0.26623908     0.14300
H2674       H  0.97526059  0.84110222  0.19117323     0.00100
H2675       H  0.96758012  0.93777411  0.22192723     0.14600
H2676       H  0.93270734  0.87185025  0.27975699     0.14400
C2677       C  0.87115741  0.70672250  0.45987063     0.86200
C2678       C  0.84318585  0.71349853  0.43917232    -0.54000
C2679       C  0.82570318  0.73836138  0.44804260     0.09100
C2680       C  0.83922580  0.75578144  0.47700940     0.20100
C2681       C  0.89130062  0.73744476  0.45830923    -0.54700
C2682       C  0.87499854  0.76344840  0.46767405     0.09300
C2683       C  0.85739908  0.70468127  0.49378609    -0.54300
C2684       C  0.84070160  0.72987854  0.50306369     0.09800
H2685       H  0.83764776  0.69956234  0.41863931     0.14300
H2686       H  0.82518535  0.77619326  0.48455198     0.00100
H2687       H  0.91577104  0.73894587  0.44932607     0.14600
H2688       H  0.86092005  0.68447071  0.01038104     0.14400
C2689       C  0.73502949  0.52405158  0.33248113     0.86200
C2690       C  0.75532298  0.52706636  0.36189015    -0.54000
C2691       C  0.75717373  0.00139973  0.38089870     0.09100
C2692       C  0.73435150  0.97543484  0.36943538     0.20100
C2693       C  0.74916388  0.99455994  0.31586488    -0.54700
C2694       C  0.74730803  0.96843145  0.33562563     0.09300
C2695       C  0.70115398  0.51488955  0.34512269    -0.54300
C2696       C  0.70170954  0.99025885  0.36438175     0.09800
H2697       H  0.77195528  0.54669558  0.36417532     0.14300
H2698       H  0.73256785  0.95496935  0.38590996     0.00100
H2699       H  0.75663129  0.99335610  0.29110222     0.14600
H2700       H  0.68019747  0.52769203  0.33874875     0.14400
C2701       C  0.60800778  0.75855121  0.39086250    -0.21600
C2702       C  0.62827262  0.76514214  0.41603086    -0.09600
C2703       C  0.65777290  0.78071014  0.40875935     0.29200
C2704       C  0.66703394  0.78818124  0.37713583    -0.21600
C2705       C  0.64751768  0.77985288  0.35204329    -0.09600
C2706       C  0.61771781  0.76515828  0.35931190     0.29300
F2707       F  0.59906609  0.75490092  0.33573438    -0.20100
H2708       H  0.58491455  0.74712522  0.39541327     0.17600
H2709       H  0.69085606  0.79784781  0.37203271     0.17600
F2710       F  0.67902084  0.78620114  0.43165338    -0.20100
C2711       C  0.70096455  0.74374114  0.06681745    -0.21600
C2712       C  0.69430860  0.77081018  0.08396352    -0.09600
C2713       C  0.67469734  0.79340539  0.07110777     0.29200
C2714       C  0.65990712  0.78781850  0.04250118    -0.21600
C2715       C  0.66389586  0.75928396  0.02685209    -0.09600
C2716       C  0.68589718  0.73793711  0.03838181     0.29300
F2717       F  0.69102062  0.71053793  0.02341216    -0.20100
H2718       H  0.71594190  0.72600377  0.07669103     0.17600
H2719       H  0.64300258  0.80457188  0.03429674     0.17600
F2720       F  0.66733376  0.81931741  0.08775337    -0.20100
C2721       C  0.76085681  0.72257582  0.39195735    -0.21600
C2722       C  0.76759276  0.74683125  0.36985269    -0.09600
C2723       C  0.78580765  0.77317896  0.37948199     0.29200
C2724       C  0.80120085  0.77275187  0.40840215    -0.21600
C2725       C  0.79826033  0.74639787  0.42840658    -0.09600
C2726       C  0.77590985  0.72242856  0.42114684     0.29300
F2727       F  0.77197487  0.69685180  0.44050622    -0.20100
H2728       H  0.74632812  0.70247011  0.38560081     0.17600
H2729       H  0.81812957  0.79145068  0.41341488     0.17600
F2730       F  0.79069578  0.79849017  0.35987915    -0.20100
C2731       C  0.79887957  0.70521275  0.08170306    -0.21600
C2732       C  0.80859903  0.72948362  0.10139395    -0.09600
C2733       C  0.82854497  0.75396362  0.08838366     0.29200
C2734       C  0.83746247  0.75469569  0.05615372    -0.21600
C2735       C  0.82717340  0.73086152  0.03636025    -0.09600
C2736       C  0.80816004  0.70579619  0.04946198     0.29300
F2737       F  0.79803995  0.68218308  0.03084151    -0.20100
H2738       H  0.78289757  0.68663556  0.09089255     0.17600
H2739       H  0.85301506  0.77352704  0.04676789     0.17600
F2740       F  0.83894108  0.77760297  0.10687169    -0.20100
C2741       C  0.73587618  0.91096142  0.33977799    -0.21600
C2742       C  0.75449562  0.93569607  0.32595040    -0.09600
C2743       C  0.77894992  0.92838973  0.30355359     0.29200
C2744       C  0.78319570  0.89715456  0.29424688    -0.21600
C2745       C  0.76335835  0.87286061  0.30729190    -0.09600
C2746       C  0.74035689  0.88012051  0.33089393     0.29300
F2747       F  0.71975882  0.85756738  0.34302188    -0.20100
H2748       H  0.71628697  0.91543044  0.35632530     0.17600
H2749       H  0.80031663  0.89230211  0.27524223     0.17600
F2750       F  0.79813798  0.95130232  0.29003743    -0.20100
C2751       C  0.72295102  0.61064624  0.31241477    -0.21600
C2752       C  0.73744704  0.61530239  0.28202127    -0.09600
C2753       C  0.75161196  0.58928047  0.26750040     0.29200
C2754       C  0.75061970  0.55957468  0.28295420    -0.21600
C2755       C  0.73578571  0.55518860  0.31339512    -0.09600
C2756       C  0.72230813  0.58156558  0.32782868     0.29300
F2757       F  0.70837175  0.57937764  0.35736503    -0.20100
H2758       H  0.71201311  0.62979073  0.32488497     0.17600
H2759       H  0.76200171  0.54039279  0.27111521     0.17600
F2760       F  0.76643993  0.59240683  0.23849442    -0.20100
C2761       C  0.86409007  0.85504622  0.21036796    -0.21600
C2762       C  0.85979001  0.82506432  0.19848653    -0.09600
C2763       C  0.88565267  0.80486401  0.19627017     0.29200
C2764       C  0.91474173  0.81363115  0.20900210    -0.21600
C2765       C  0.91799736  0.84241771  0.22414993    -0.09600
C2766       C  0.89292941  0.86376797  0.22320369     0.29300
F2767       F  0.89597963  0.89295044  0.23501401    -0.20100
H2768       H  0.84409882  0.87055736  0.21265299     0.17600
H2769       H  0.93434931  0.79759599  0.20805189     0.17600
F2770       F  0.88167376  0.77555371  0.18479120    -0.20100
C2771       C  0.56605471  0.79522700  0.21284206    -0.21600
C2772       C  0.59433243  0.81338853  0.20834547    -0.09600
C2773       C  0.59277241  0.84611477  0.20591333     0.29200
C2774       C  0.56367708  0.86055319  0.21006105    -0.21600
C2775       C  0.53579111  0.84268194  0.21704640    -0.09600
C2776       C  0.53673886  0.80988153  0.21735470     0.29300
F2777       F  0.50997898  0.79231048  0.22471150    -0.20100
H2778       H  0.56698694  0.76998641  0.21519035     0.17600
H2779       H  0.56310892  0.88589776  0.20951431     0.17600
F2780       F  0.61969989  0.86421809  0.20127466    -0.20100
C2781       C  0.69714675  0.91646565  0.18397467    -0.21600
C2782       C  0.72302204  0.89699088  0.17726843    -0.09600
C2783       C  0.74794130  0.90874531  0.15659688     0.29200
C2784       C  0.74627600  0.93834209  0.14216428    -0.21600
C2785       C  0.72004266  0.95738625  0.14798037    -0.09600
C2786       C  0.69556721  0.94629912  0.16951603     0.29300
F2787       F  0.66941601  0.96360093  0.17560107    -0.20100
H2788       H  0.67758305  0.90821117  0.19963060     0.17600
H2789       H  0.76587505  0.94648647  0.12649177     0.17600
F2790       F  0.77427301  0.89173980  0.15033258    -0.20100
C2791       C  0.70362919  0.60176982  0.11027950    -0.21600
C2792       C  0.69885460  0.57690605  0.13266336    -0.09600
C2793       C  0.68484091  0.58342113  0.16253784     0.29200
C2794       C  0.68035044  0.61437940  0.17097986    -0.21600
C2795       C  0.68864972  0.63892378  0.14966750    -0.09600
C2796       C  0.69874820  0.63255397  0.11873071     0.29300
F2797       F  0.70745841  0.65615483  0.09801308    -0.20100
H2798       H  0.71335376  0.59742731  0.08666698     0.17600
H2799       H  0.67354207  0.61930010  0.19533183     0.17600
F2800       F  0.67682793  0.56078601  0.18432857    -0.20100
C2801       C  0.96852545  0.89040624  0.11212364    -0.21600
C2802       C  0.94494274  0.91203253  0.10572366    -0.09600
C2803       C  0.92732608  0.92505092  0.13094345     0.29200
C2804       C  0.93548422  0.91851069  0.16221612    -0.21600
C2805       C  0.96165261  0.89961772  0.16817617    -0.09600
C2806       C  0.97780613  0.88531942  0.14288360     0.29300
F2807       F  0.50437886  0.86887545  0.14793641    -0.20100
H2808       H  0.98295676  0.88099086  0.09288277     0.17600
H2809       H  0.92223977  0.92903894  0.18160843     0.17600
F2810       F  0.90480775  0.94651978  0.12528018    -0.20100
C2811       C  0.94725602  0.94786897  0.32540022    -0.21600
C2812       C  0.97442285  0.94994865  0.34367373    -0.09600
C2813       C  0.00400265  0.94134945  0.33050359     0.29200
C2814       C  0.00568290  0.92708301  0.30122319    -0.21600
C2815       C  0.97771731  0.92012435  0.28484659    -0.09600
C2816       C  0.94893742  0.93342222  0.29588742     0.29300
F2817       F  0.92203996  0.93087943  0.27908715    -0.20100
H2818       H  0.92446484  0.95571880  0.33470511     0.17600
H2819       H  0.02911059  0.92126613  0.29224382     0.17600
F2820       F  0.03130501  0.94601376  0.34639850    -0.20100
C2821       C  0.61293738  0.96786075  0.37394701    -0.21600
C2822       C  0.60892933  0.96460182  0.40700263    -0.09600
C2823       C  0.63635848  0.96603139  0.42543446     0.29200
C2824       C  0.66678794  0.97216533  0.41124210    -0.21600
C2825       C  0.67046059  0.97781597  0.37845722    -0.09600
C2826       C  0.64335727  0.97426954  0.35975575     0.29300
F2827       F  0.64611224  0.97819622  0.32779706    -0.20100
H2828       H  0.59224028  0.96773789  0.35929611     0.17600
H2829       H  0.68715639  0.97473592  0.42617824     0.17600
F2830       F  0.63332099  0.96411361  0.45754069    -0.20100
C2831       C  0.82517710  0.01671017  0.43654881    -0.21600
C2832       C  0.83906456  0.98722150  0.43804264    -0.09600
C2833       C  0.82312352  0.96149190  0.42502983     0.29200
C2834       C  0.79518778  0.96584927  0.40825027    -0.21600
C2835       C  0.78239736  0.99589037  0.40461705    -0.09600
C2836       C  0.79686945  0.02099522  0.42058618     0.29300
F2837       F  0.78440113  0.04998477  0.41990863    -0.20100
H2838       H  0.83701195  0.03678693  0.44681123     0.17600
H2839       H  0.78501094  0.94594884  0.39629865     0.17600
F2840       F  0.83601333  0.93271309  0.42616745    -0.20100
C2841       C  0.64682345  0.01766026  0.01665759    -0.21600
C2842       C  0.62233029  0.49456087  0.02942328    -0.09600
C2843       C  0.63105198  0.47119368  0.05132207     0.29200
C2844       C  0.66154246  0.47187637  0.06367413    -0.21600
C2845       C  0.68349934  0.49576625  0.05445122    -0.09600
C2846       C  0.67726848  0.01826875  0.02912829     0.29300
F2847       F  0.69772501  0.04248233  0.02104055    -0.20100
H2848       H  0.64077619  0.03584062  0.99990698     0.17600
H2849       H  0.66638006  0.45644175  0.08345652     0.17600
F2850       F  0.60961466  0.44896902  0.06248512    -0.20100
C2851       C  0.82599620  0.50684710  0.04137001    -0.21600
C2852       C  0.85167832  0.52140595  0.05652838    -0.09600
C2853       C  0.84605226  0.53547131  0.08584859     0.29200
C2854       C  0.81508688  0.53461483  0.09967339    -0.21600
C2855       C  0.78949847  0.51960840  0.08445789    -0.09600
C2856       C  0.79535034  0.50578273  0.05506654     0.29300
F2857       F  0.77143576  0.49201764  0.03897411    -0.20100
H2858       H  0.82990133  0.49567553  0.01881493     0.17600
H2859       H  0.81119008  0.54525570  0.12254976     0.17600
F2860       F  0.87051663  0.54849249  0.10173094    -0.20100
C2861       C  0.87917065  0.61937691  0.44847894    -0.21600
C2862       C  0.91213270  0.61643353  0.44724405    -0.09600
C2863       C  0.93234425  0.64312786  0.44594275     0.29200
C2864       C  0.91945780  0.67284027  0.44763479    -0.21600
C2865       C  0.88622056  0.67602747  0.45131495    -0.09600
C2866       C  0.86620468  0.64879861  0.45093033     0.29300
F2867       F  0.83406762  0.65040097  0.45569977    -0.20100
H2868       H  0.86354257  0.59877161  0.45040995     0.17600
H2869       H  0.93520245  0.69170330  0.94569301     0.17600
F2870       F  0.96373276  0.63919037  0.94151047    -0.20100
C2871       C  0.93822293  0.82980524  0.47336551    -0.21600
C2872       C  0.92035750  0.85649065  0.46784242    -0.09600
C2873       C  0.88736496  0.85249907  0.46298605     0.29200
C2874       C  0.87291053  0.82245443  0.46290252    -0.21600
C2875       C  0.89070503  0.79557425  0.46840348    -0.09600
C2876       C  0.92362206  0.79981833  0.47431227     0.29300
F2877       F  0.94162312  0.77527033  0.48260967    -0.20100
H2878       H  0.96333045  0.83227728  0.47838463     0.17600
H2879       H  0.84773766  0.82034248  0.45822400     0.17600
F2880       F  0.86905020  0.87773211  0.45801372    -0.20100
C2881       C  0.52225612  0.65763216  0.50305413    -0.21600
C2882       C  0.54019521  0.63058359  0.49849914    -0.09600
C2883       C  0.57341799  0.63440189  0.49285202     0.29200
C2884       C  0.58787145  0.66413744  0.49061900    -0.21600
C2885       C  0.57033470  0.69153312  0.49479302    -0.09600
C2886       C  0.53691902  0.68777540  0.50111267     0.29300
F2887       F  0.51770851  0.71264810  0.50361254    -0.20100
H2888       H  0.99661671  0.65578215  0.50746913     0.17600
H2889       H  0.61333198  0.66574080  0.48522123     0.17600
F2890       F  0.59230935  0.60928415  0.48913771    -0.20100
C2891       C  0.58331025  0.86860272  0.48786064    -0.21600
C2892       C  0.56180189  0.87403560  0.01173604    -0.09600
C2893       C  0.55322661  0.84962078  0.03325370     0.29200
C2894       C  0.56436178  0.81925907  0.02803599    -0.21600
C2895       C  0.58252550  0.81305893  0.50132140    -0.09600
C2896       C  0.59345465  0.83843070  0.48179856     0.29300
F2897       F  0.61152281  0.83405153  0.45499384    -0.20100
H2898       H  0.59056530  0.88721746  0.47116979     0.17600
H2899       H  0.55683110  0.80060708  0.04449502     0.17600
F2900       F  0.53218406  0.85448504  0.05770974    -0.20100
C2901       C  0.50106747  0.59563716  0.15534445    -0.21600
C2902       C  0.98402309  0.58137226  0.18122415    -0.09600
C2903       C  0.97071686  0.55101373  0.17690634     0.29200
C2904       C  0.97553861  0.53523087  0.14816683    -0.21600
C2905       C  0.99286230  0.54949806  0.12255735    -0.09600
C2906       C  0.50521420  0.58014732  0.12632678     0.29300
F2907       F  0.52081337  0.59544282  0.10170042    -0.20100
H2908       H  0.51151445  0.61888876  0.15764289     0.17600
H2909       H  0.96416064  0.51244403  0.14532378     0.17600
F2910       F  0.95150439  0.53711319  0.19984362    -0.20100
C2911       C  0.50686263  0.55830626  0.30474336    -0.21600
C2912       C  0.99085652  0.58738231  0.30267115    -0.09600
C2913       C  0.99054513  0.60729268  0.32922730     0.29200
C2914       C  0.00304144  0.59766883  0.35767849    -0.21600
C2915       C  0.01588772  0.56805515  0.36062276    -0.09600
C2916       C  0.51914023  0.54849260  0.33345225     0.29300
F2917       F  0.53135753  0.51946034  0.33587383    -0.20100
H2918       H  0.50993486  0.54329088  0.28461844     0.17600
H2919       H  0.00009888  0.61228879  0.37828962     0.17600
F2920       F  0.97926557  0.63674393  0.32735334    -0.20100
C2921       C  0.88680724  0.69708941  0.26213386    -0.21600
C2922       C  0.86701909  0.69451993  0.23610335    -0.09600
C2923       C  0.87778016  0.67629355  0.21015928     0.29200
C2924       C  0.90627616  0.65970912  0.21131990    -0.21600
C2925       C  0.92479711  0.66060335  0.23824704    -0.09600
C2926       C  0.91526681  0.68034557  0.26327747     0.29300
F2927       F  0.93333103  0.68311889  0.28919332    -0.20100
H2928       H  0.87967488  0.71111440  0.28218859     0.17600
H2929       H  0.91308909  0.64497370  0.19168969     0.17600
F2930       F  0.86050458  0.67396771  0.18363874    -0.20100
C2931       C  0.56445552  0.64559624  0.21549883    -0.21600
C2932       C  0.53802005  0.66122312  0.22810609    -0.09600
C2933       C  0.54328944  0.68724158  0.24750574     0.29200
C2934       C  0.57426554  0.69621243  0.25548841    -0.21600
C2935       C  0.60049889  0.67939857  0.24437687    -0.09600
C2936       C  0.59531624  0.65425090  0.22389130     0.29300
F2937       F  0.62025693  0.63816442  0.21179738    -0.20100
H2938       H  0.56095072  0.62460714  0.20181006     0.17600
H2939       H  0.57786550  0.71682432  0.26968960     0.17600
F2940       F  0.51818548  0.70189305  0.26133613    -0.20100
C2941       C  0.98583572  0.60268126  0.77085097     0.86200
C2942       C  0.95511955  0.62128928  0.76934174    -0.54000
C2943       C  0.95229387  0.63845097  0.74198025     0.09100
C2944       C  0.48015699  0.63345786  0.71784755     0.20100
C2945       C  0.98524008  0.58167302  0.74145665    -0.54700
C2946       C  0.98262761  0.59757279  0.71308444     0.09300
C2947       C  0.51258859  0.62570922  0.76361227    -0.54300
C2948       C  0.51021525  0.64209742  0.73643203     0.09800
H2949       H  0.93738255  0.62144454  0.78872634     0.14300
H2950       H  0.47809441  0.64733309  0.69561265     0.00100
H2951       H  0.98807713  0.55662428  0.74273083     0.14600
H2952       H  0.53309828  0.62862183  0.77860734     0.14400
O2953       O  0.53411425  0.55039315  0.91192997    -0.80400
O2954       O  0.87848429  0.96829727  0.97345451    -0.81900
O2955       O  0.95468375  0.98202494  0.88501457    -0.79000
O2956       O  0.92739337  0.56469068  0.93373671    -0.77400
O2957       O  0.93344191  0.58311362  0.98395839    -0.79100
O2958       O  0.98797568  0.94207380  0.89640111    -0.80100
O2959       O  0.89301882  0.00178110  0.93237378    -0.81400
O2960       O  0.98271896  0.54329998  0.89491343    -0.81700
Eu2961     Eu  0.95117105  0.51298298  0.93235238     2.39200
O2962       O  0.92842087  0.51341899  0.98359789    -0.89200
O2963       O  0.00235827  0.99360083  0.93309381    -0.92800
C2964       C  0.01149276  0.55368917  0.89152594     1.01900
C2965       C  0.87217669  0.98544339  0.94906819     1.01700
C2966       C  0.97156158  0.95835978  0.87725933     1.01600
C2967       C  0.92473590  0.58566319  0.95516574     0.99500
H2968       H  0.93400168  0.94794226  0.93860331     0.29300
O2969       O  0.94748089  0.96042038  0.95189801    -1.01600
H2970       H  0.98512041  0.56560332  0.95508019     0.29300
O2971       O  0.98327889  0.54466904  0.96397647    -1.04100
O2972       O  0.92811229  0.93446304  0.55677798    -0.81400
O2973       O  0.58260157  0.51457231  0.99596581    -0.80900
O2974       O  0.96313312  0.89449578  0.95671107    -0.79300
O2975       O  0.90560609  0.53999347  0.54062073    -0.82700
O2976       O  0.99718227  0.59294706  0.51090433    -0.80500
O2977       O  0.55517981  0.94739262  0.92540672    -0.79200
O2978       O  0.53738711  0.92217929  0.53222951    -0.80700
O2979       O  0.50482336  0.50947570  0.58390704    -0.82600
O2980       O  0.53144004  0.90547008  0.98069129    -0.79400
O2981       O  0.97651768  0.55176611  0.57032552    -0.82000
O2982       O  0.91900339  0.90731781  0.98680974    -0.77800
O2983       O  0.57420746  0.99740454  0.93300283    -0.77800
O2984       O  0.54103907  0.57862441  0.98197901    -0.77400
O2985       O  0.88790692  0.99063160  0.53343878    -0.80900
O2986       O  0.97910761  0.94253012  0.57327767    -0.80400
O2987       O  0.56820198  0.98568350  0.53866735    -0.78700
Eu2988     Eu  0.92702807  0.96163185  0.50458985     2.39800
Eu2989     Eu  0.53491341  0.52463841  0.96488145     2.39600
Eu2990     Eu  0.00006163  0.94194982  0.95223162     2.38400
Eu2991     Eu  0.96093483  0.54533130  0.51580825     2.39900
Eu2992     Eu  0.51102764  0.97459386  0.53714923     2.39800
O2993       O  0.51317637  0.52593068  0.51646507    -0.93100
O2994       O  0.97913890  0.94222406  0.00489804    -0.92000
C2995       C  0.95061902  0.93102000  0.57657478     1.02100
C2996       C  0.58854547  0.49883054  0.51929397     1.00800
C2997       C  0.93527541  0.88793756  0.97013816     1.00200
C2998       C  0.88390668  0.51768999  0.54269909     1.02200
C2999       C  0.52511747  0.59874061  0.99804377     1.01100
C3000       C  0.57699739  0.96965362  0.92224219     0.99900
C3001       C  0.54191217  0.90272262  0.50915211     1.00000
C3002       C  0.99225888  0.53577876  0.59025833     1.02600
H3003       H  0.55204276  0.96444911  0.98444300     0.30000
O3004       O  0.53112444  0.97330447  0.98469377    -1.05300
H3005       H  0.94969275  0.99449073  0.55782234     0.32000
O3006       O  0.95893540  0.99416936  0.53657575    -1.07800
C3007       C  0.71053794  0.54475686  0.62091829     0.86200
C3008       C  0.69323286  0.53592789  0.59127552    -0.54000
C3009       C  0.70345552  0.50967529  0.57705290     0.09100
C3010       C  0.73137373  0.99465155  0.59622125     0.20100
C3011       C  0.70687597  0.51524178  0.64275869    -0.54700
C3012       C  0.71956096  0.98875546  0.63117694     0.09300
C3013       C  0.74607020  0.54598250  0.61121153    -0.54300
C3014       C  0.75670630  0.51976462  0.59700450     0.09800
H3015       H  0.67301083  0.54884414  0.58296849     0.14300
H3016       H  0.73983477  0.97343708  0.58403532     0.00100
H3017       H  0.69851187  0.51509691  0.66725136     0.14600
H3018       H  0.76134265  0.56660695  0.61416425     0.14400
O3019       O  0.65051309  0.69720994  0.76659294    -0.80400
O3020       O  0.72671005  0.78647292  0.62584067    -0.81900
O3021       O  0.63296329  0.77469277  0.69507095    -0.79000
O3022       O  0.67889285  0.68998324  0.66542814    -0.77400
O3023       O  0.72785348  0.66901431  0.67323215    -0.79100
O3024       O  0.64587185  0.81411691  0.72874658    -0.80100
O3025       O  0.68228141  0.75524451  0.63596546    -0.81400
O3026       O  0.63825788  0.70839628  0.71519440    -0.81700
Eu3027     Eu  0.67948818  0.74062452  0.69190454     2.39200
O3028       O  0.73240141  0.73866549  0.67365497    -0.89200
O3029       O  0.67632580  0.75651085  0.74505024    -0.92800
C3030       C  0.63216777  0.69574911  0.74233458     1.01900
C3031       C  0.70148360  0.77136420  0.61730595     1.01700
C3032       C  0.62680142  0.80002010  0.71010443     1.01600
C3033       C  0.69947292  0.66825150  0.66268648     0.99500
H3034       H  0.68948821  0.80563548  0.68049635     0.29300
O3035       O  0.70105070  0.79158696  0.69386799    -1.01600
H3036       H  0.69677001  0.68470636  0.72398161     0.29300
O3037       O  0.70666619  0.70533960  0.72424355    -1.04100
O3038       O  0.80885442  0.81178187  0.68020696    -0.81400
O3039       O  0.73426733  0.72915190  0.82760653    -0.80900
O3040       O  0.70798346  0.85625618  0.71475747    -0.79300
O3041       O  0.78712234  0.71001029  0.65151677    -0.82700
O3042       O  0.75321466  0.65479382  0.73980647    -0.80500
O3043       O  0.67016745  0.79926388  0.80084451    -0.79200
O3044       O  0.77999838  0.82351697  0.78588268    -0.80700
O3045       O  0.82872192  0.73347805  0.75348850    -0.82600
O3046       O  0.72946745  0.84153970  0.77979989    -0.79400
O3047       O  0.81482818  0.69544740  0.71864034    -0.82000
O3048       O  0.74168961  0.84484139  0.67304290    -0.77800
O3049       O  0.67064966  0.74718978  0.81487509    -0.77800
O3050       O  0.72058270  0.66759678  0.78187159    -0.77400
O3051       O  0.78633857  0.76205190  0.63785042    -0.80900
O3052       O  0.82379413  0.79967955  0.73056788    -0.80400
O3053       O  0.78057481  0.75716293  0.81562869    -0.78700
Eu3054     Eu  0.75465401  0.78946202  0.67621078     2.39800
Eu3055     Eu  0.70477773  0.72180864  0.77687457     2.39600
Eu3056     Eu  0.69931262  0.80698904  0.74732337     2.38400
Eu3057     Eu  0.75984229  0.70318513  0.70525296     2.39900
Eu3058     Eu  0.78231956  0.77063023  0.75966490     2.39800
O3059       O  0.75876598  0.71980656  0.75855015    -0.93100
O3060       O  0.75319918  0.80575843  0.72896581    -0.92000
C3061       C  0.82886752  0.81144814  0.70266211     1.02100
C3062       C  0.76041039  0.74375199  0.83548723     1.00800
C3063       C  0.72461468  0.86404599  0.68915069     1.00200
C3064       C  0.79395928  0.73371493  0.63257497     1.02200
C3065       C  0.73787365  0.64805339  0.76644537     1.01100
C3066       C  0.66310744  0.77559976  0.81994465     0.99900
C3067       C  0.75775008  0.84390851  0.79030951     1.00000
C3068       C  0.83507832  0.70900803  0.73641125     1.02600
H3069       H  0.72776026  0.78024168  0.79857874     0.30000
O3070       O  0.72851631  0.77217381  0.77738564    -1.05300
H3071       H  0.80430319  0.75272810  0.69858735     0.32000
O3072       O  0.78272773  0.75378515  0.70707849    -1.07800
C3073       C  0.59019924  0.72278784  0.99043609     0.86200
C3074       C  0.61986257  0.72384449  0.50868477    -0.54000
C3075       C  0.63883967  0.74997929  0.50350701     0.09100
C3076       C  0.62659237  0.77276773  0.97921990     0.20100
C3077       C  0.57443804  0.75397237  0.99983996    -0.54700
C3078       C  0.59355278  0.78017903  0.99384710     0.09300
C3079       C  0.60083393  0.72781369  0.95544867    -0.54300
C3080       C  0.61945558  0.75412625  0.94904497     0.09800
H3081       H  0.62444582  0.70665473  0.52710820     0.14300
H3082       H  0.64247545  0.79361844  0.97519491     0.00100
H3083       H  0.55093797  0.75580430  0.01085005     0.14600
H3084       H  0.59359777  0.71177144  0.93718744     0.14400
C3085       C  0.97768856  0.89628664  0.75772064     0.86200
C3086       C  0.00881520  0.87863999  0.75194535    -0.54400
C3087       C  0.00820449  0.85906179  0.72702340     0.09100
C3088       C  0.97668554  0.85815615  0.71016655     0.20100
C3089       C  0.97129164  0.91243296  0.72564088    -0.54700
C3090       C  0.97086310  0.89216425  0.70081751     0.09300
C3091       C  0.95200763  0.86986348  0.76113573    -0.54300
C3092       C  0.95024040  0.85123714  0.73514404     0.09800
H3093       H  0.52977848  0.88035178  0.76621228     0.14300
H3094       H  0.97631524  0.84135164  0.69038128     0.00100
H3095       H  0.96666698  0.93720717  0.72304494     0.14600
H3096       H  0.93331744  0.86946315  0.77964473     0.14400
C3097       C  0.87100295  0.70591169  0.96051451     0.86200
C3098       C  0.84301267  0.71257822  0.93980677    -0.54000
C3099       C  0.82572122  0.73765839  0.94837125     0.09100
C3100       C  0.83927852  0.75523983  0.97720780     0.20100
C3101       C  0.89128817  0.73657198  0.95872633    -0.54700
C3102       C  0.87510089  0.76274277  0.96783663     0.09300
C3103       C  0.85728707  0.70421469  0.99445462    -0.54300
C3104       C  0.84054058  0.72947546  0.00346769     0.09800
H3105       H  0.83739905  0.69845786  0.91942104     0.14300
H3106       H  0.82529795  0.77576083  0.98453862     0.00100
H3107       H  0.91578568  0.73790180  0.94984238     0.14600
H3108       H  0.86112008  0.68484136  0.50956410     0.14400
C3109       C  0.73655747  0.52473548  0.83132584     0.86200
C3110       C  0.75742272  0.52638322  0.86044506    -0.54000
C3111       C  0.75707069  0.00166768  0.88224982     0.09100
C3112       C  0.73426396  0.97572438  0.87056302     0.20100
C3113       C  0.74990445  0.99461246  0.81709533    -0.54700
C3114       C  0.74763524  0.96855756  0.83695655     0.09300
C3115       C  0.70265198  0.51689403  0.84451762    -0.54300
C3116       C  0.70177726  0.99071656  0.86499904     0.09800
H3117       H  0.77555687  0.54474860  0.86293493     0.14300
H3118       H  0.73212585  0.95519093  0.88693580     0.00100
H3119       H  0.75780617  0.99326661  0.79245661     0.14600
H3120       H  0.68228589  0.53092172  0.83892663     0.14400
C3121       C  0.60866190  0.75769300  0.89058458    -0.21600
C3122       C  0.62885838  0.76470913  0.91570867    -0.09600
C3123       C  0.65798224  0.78095528  0.90827050     0.29200
C3124       C  0.66695277  0.78865392  0.87661223    -0.21600
C3125       C  0.64758483  0.77988179  0.85156201    -0.09600
C3126       C  0.61810146  0.76456999  0.85897965     0.29300
F3127       F  0.59949812  0.75405271  0.83547703    -0.20100
H3128       H  0.58581358  0.74581164  0.89519659     0.17600
H3129       H  0.69055065  0.79883064  0.87144360     0.17600
F3130       F  0.67924695  0.78695282  0.93101849    -0.20100
C3131       C  0.69974155  0.74338299  0.56683009    -0.21600
C3132       C  0.69396024  0.77079491  0.58371869    -0.09600
C3133       C  0.67461242  0.79364714  0.57088501     0.29200
C3134       C  0.65934292  0.78806644  0.54251598    -0.21600
C3135       C  0.66259183  0.75930288  0.52711165    -0.09600
C3136       C  0.68420793  0.73759620  0.53866664     0.29300
F3137       F  0.68851913  0.70990173  0.52399611    -0.20100
H3138       H  0.71441181  0.72540626  0.57673271     0.17600
H3139       H  0.64266542  0.80505690  0.53431937     0.17600
F3140       F  0.66794783  0.81984238  0.58736607    -0.20100
C3141       C  0.76118402  0.72269324  0.89165569    -0.21600
C3142       C  0.76862205  0.74667853  0.86940843    -0.09600
C3143       C  0.78742825  0.77266146  0.87898586     0.29200
C3144       C  0.80249125  0.77211423  0.90806918    -0.21600
C3145       C  0.79870906  0.74600872  0.92831075    -0.09600
C3146       C  0.77595633  0.72243144  0.92100789     0.29300
F3147       F  0.77118880  0.69713625  0.94061904    -0.20100
H3148       H  0.74619840  0.70288873  0.88536217     0.17600
H3149       H  0.81978877  0.79048375  0.91308576     0.17600
F3150       F  0.79314554  0.79774547  0.85925189    -0.20100
C3151       C  0.79920073  0.70577590  0.58131587    -0.21600
C3152       C  0.80993802  0.72940316  0.60127579    -0.09600
C3153       C  0.83073436  0.75331062  0.58853526     0.29200
C3154       C  0.83936058  0.75425892  0.55622131    -0.21600
C3155       C  0.82786023  0.73119687  0.53612473    -0.09600
C3156       C  0.80817501  0.70655914  0.54901358     0.29300
F3157       F  0.79708506  0.68360493  0.53011369    -0.20100
H3158       H  0.78259142  0.68765290  0.59034933     0.17600
H3159       H  0.85552745  0.77266281  0.54697407     0.17600
F3160       F  0.84214294  0.77621598  0.60736537    -0.20100
C3161       C  0.73482591  0.91130346  0.84014629    -0.21600
C3162       C  0.75462517  0.93572678  0.82746483    -0.09600
C3163       C  0.78005086  0.92806532  0.80634664     0.29200
C3164       C  0.78403922  0.89682292  0.79686632    -0.21600
C3165       C  0.76289451  0.87287386  0.80844100    -0.09600
C3166       C  0.73894050  0.88044981  0.83103058     0.29300
F3167       F  0.71727372  0.85827751  0.84193785    -0.20100
H3168       H  0.71469326  0.91613770  0.85591512     0.17600
H3169       H  0.80206518  0.89177862  0.77877237     0.17600
F3170       F  0.80049434  0.95069852  0.79427424    -0.20100
C3171       C  0.72877429  0.61224285  0.81335811    -0.21600
C3172       C  0.73955616  0.61612771  0.78155380    -0.09600
C3173       C  0.75041238  0.58948194  0.76550233     0.29200
C3174       C  0.74958862  0.55979234  0.78089597    -0.21600
C3175       C  0.73814897  0.55608256  0.81270787    -0.09600
C3176       C  0.72809955  0.58309946  0.82860659     0.29300
F3177       F  0.71737553  0.58139190  0.85935465    -0.20100
H3178       H  0.72064060  0.63200547  0.82690948     0.17600
H3179       H  0.75796599  0.54001476  0.76769203     0.17600
F3180       F  0.76132204  0.59190730  0.73489150    -0.20100
C3181       C  0.86508849  0.85497325  0.70977530    -0.21600
C3182       C  0.86045924  0.82514170  0.69768488    -0.09600
C3183       C  0.88614416  0.80474988  0.69509116     0.29200
C3184       C  0.91538671  0.81313533  0.70777197    -0.21600
C3185       C  0.91890253  0.84170093  0.72327503    -0.09600
C3186       C  0.89403043  0.86328976  0.72257879     0.29300
F3187       F  0.89734657  0.89231891  0.73465981    -0.20100
H3188       H  0.84525523  0.87064744  0.71229748     0.17600
H3189       H  0.93486219  0.79695838  0.70657140     0.17600
F3190       F  0.88183180  0.77559920  0.68332605    -0.20100
C3191       C  0.56734701  0.79615952  0.70948319    -0.21600
C3192       C  0.59571248  0.81438821  0.70666142    -0.09600
C3193       C  0.59422019  0.84719444  0.70568200     0.29200
C3194       C  0.56510471  0.86150141  0.71024601    -0.21600
C3195       C  0.53712692  0.84338848  0.71590496    -0.09600
C3196       C  0.53799476  0.81066521  0.71413974     0.29300
F3197       F  0.51104151  0.79284124  0.71966892    -0.20100
H3198       H  0.56817136  0.77084614  0.71048750     0.17600
H3199       H  0.56456184  0.88682242  0.71099919     0.17600
F3200       F  0.62119390  0.86541351  0.70212469    -0.20100
C3201       C  0.69890202  0.91681033  0.68430967    -0.21600
C3202       C  0.72418822  0.89698784  0.67652582    -0.09600
C3203       C  0.74851311  0.90846926  0.65499720     0.29200
C3204       C  0.74680754  0.93820658  0.64089415    -0.21600
C3205       C  0.72107785  0.95759885  0.64778472    -0.09600
C3206       C  0.69724793  0.94673172  0.67012875     0.29300
F3207       F  0.67158109  0.96433340  0.67732405    -0.20100
H3208       H  0.67981054  0.90878319  0.70064656     0.17600
H3209       H  0.76596864  0.94614308  0.62459476     0.17600
F3210       F  0.77427851  0.89107092  0.64752014    -0.20100
C3211       C  0.70590917  0.60187532  0.60931701    -0.21600
C3212       C  0.69976550  0.57677513  0.63117571    -0.09600
C3213       C  0.68480874  0.58318836  0.66063591     0.29200
C3214       C  0.68074242  0.61417384  0.66940265    -0.21600
C3215       C  0.69026463  0.63887143  0.64868872    -0.09600
C3216       C  0.70138201  0.63265844  0.61801498     0.29300
F3217       F  0.71117886  0.65634197  0.59782171    -0.20100
H3218       H  0.71631565  0.59765364  0.58594841     0.17600
H3219       H  0.67303394  0.61890741  0.69354750     0.17600
F3220       F  0.67521702  0.56031718  0.68161782    -0.20100
C3221       C  0.96901300  0.89149037  0.61223440    -0.21600
C3222       C  0.94540460  0.91312229  0.60597285    -0.09600
C3223       C  0.92786827  0.92607511  0.63128216     0.29200
C3224       C  0.93588737  0.91918007  0.66252257    -0.21600
C3225       C  0.96193746  0.90009815  0.66838138    -0.09600
C3226       C  0.97824553  0.88614913  0.64295837     0.29300
F3227       F  0.50541306  0.87012840  0.64767587    -0.20100
H3228       H  0.98346752  0.88222726  0.59293529     0.17600
H3229       H  0.92260425  0.92955769  0.68197706     0.17600
F3230       F  0.90552153  0.94775142  0.62576395    -0.20100
C3231       C  0.94618201  0.94595702  0.82616685    -0.21600
C3232       C  0.97350736  0.94908366  0.84405889    -0.09600
C3233       C  0.00317621  0.94088440  0.83080755     0.29200
C3234       C  0.00497961  0.92632580  0.80169775    -0.21600
C3235       C  0.97707411  0.91867342  0.78552581    -0.09600
C3236       C  0.94796911  0.93118496  0.79682846     0.29300
F3237       F  0.92092320  0.92772186  0.78041358    -0.20100
H3238       H  0.92325840  0.95329967  0.83563297     0.17600
H3239       H  0.02849878  0.92096506  0.79262301     0.17600
F3240       F  0.03049041  0.94624401  0.84649398    -0.20100
C3241       C  0.61248033  0.97014137  0.87346546    -0.21600
C3242       C  0.60845697  0.96439050  0.90620397    -0.09600
C3243       C  0.63590506  0.96373194  0.92458263     0.29200
C3244       C  0.66643474  0.97023671  0.91073633    -0.21600
C3245       C  0.67019813  0.97829138  0.87840886    -0.09600
C3246       C  0.64297180  0.97680818  0.85962174     0.29300
F3247       F  0.64566925  0.98289977  0.82797086    -0.20100
H3248       H  0.59176227  0.97167138  0.85894288     0.17600
H3249       H  0.68684843  0.97116262  0.92576509     0.17600
F3250       F  0.63284331  0.95946334  0.95649949    -0.20100
C3251       C  0.82553010  0.01744844  0.93704973    -0.21600
C3252       C  0.83884910  0.98776223  0.93929939    -0.09600
C3253       C  0.82201114  0.96183025  0.92778422     0.29200
C3254       C  0.79401062  0.96614035  0.91111294    -0.21600
C3255       C  0.78193520  0.99633470  0.90638378    -0.09600
C3256       C  0.79702666  0.02169059  0.92146561     0.29300
F3257       F  0.78504107  0.05087057  0.92020871    -0.20100
H3258       H  0.83791758  0.03765558  0.94644895     0.17600
H3259       H  0.78327669  0.94599027  0.90006237     0.17600
F3260       F  0.83409896  0.93277729  0.93019058    -0.20100
C3261       C  0.64665245  0.01816290  0.51693742    -0.21600
C3262       C  0.62241889  0.49543402  0.52746000    -0.09600
C3263       C  0.63138761  0.47194575  0.54909884     0.29200
C3264       C  0.66196930  0.47260637  0.56121852    -0.21600
C3265       C  0.68378776  0.49663022  0.55205869    -0.09600
C3266       C  0.67711516  0.01851906  0.52937421     0.29300
F3267       F  0.69776109  0.04256544  0.52124923    -0.20100
H3268       H  0.64075896  0.03633951  0.50011923     0.17600
H3269       H  0.66699885  0.45700160  0.58080550     0.17600
F3270       F  0.61009290  0.44958257  0.56023468    -0.20100
C3271       C  0.82577639  0.51268525  0.53833806    -0.21600
C3272       C  0.85176734  0.52306754  0.55600431    -0.09600
C3273       C  0.84651895  0.53162211  0.58759419     0.29200
C3274       C  0.81551896  0.52980949  0.60116683    -0.21600
C3275       C  0.78965068  0.51886601  0.58353310    -0.09600
C3276       C  0.79504666  0.51037326  0.55195730     0.29300
F3277       F  0.77057165  0.50058984  0.53401624    -0.20100
H3278       H  0.82955034  0.50541346  0.51402747     0.17600
H3279       H  0.81169865  0.53651657  0.62562190     0.17600
F3280       F  0.87140709  0.53992115  0.60567549    -0.20100
C3281       C  0.87849182  0.61838564  0.95005095    -0.21600
C3282       C  0.91138274  0.61541514  0.94684518    -0.09600
C3283       C  0.93154293  0.64208848  0.94402998     0.29200
C3284       C  0.91879788  0.67183050  0.94635214    -0.21600
C3285       C  0.88578289  0.67505245  0.95202707    -0.09600
C3286       C  0.86568959  0.64784243  0.95284835     0.29300
F3287       F  0.83374512  0.64956828  0.95896238    -0.20100
H3288       H  0.86295047  0.59780736  0.95310207     0.17600
H3289       H  0.93581120  0.69269934  0.44833645     0.17600
F3290       F  0.96456424  0.64026106  0.44546352    -0.20100
C3291       C  0.93846558  0.82927651  0.97259385    -0.21600
C3292       C  0.92055061  0.85595936  0.96715117    -0.09600
C3293       C  0.88754171  0.85186711  0.96240094     0.29200
C3294       C  0.87309925  0.82178740  0.96253994    -0.21600
C3295       C  0.89090062  0.79491811  0.96813586    -0.09600
C3296       C  0.92388511  0.79925109  0.97374971     0.29300
F3297       F  0.94198241  0.77478086  0.98205965    -0.20100
H3298       H  0.96359890  0.83178680  0.97748707     0.17600
H3299       H  0.84789526  0.81965144  0.95802084     0.17600
F3300       F  0.86916693  0.87704575  0.95738612    -0.20100
C3301       C  0.52304594  0.65780442  0.00452354    -0.21600
C3302       C  0.54072778  0.63058962  0.00000744    -0.09600
C3303       C  0.57398497  0.63418356  0.99428784     0.29200
C3304       C  0.58865053  0.66381162  0.99163171    -0.21600
C3305       C  0.57136964  0.69137223  0.99562265    -0.09600
C3306       C  0.53796510  0.68785397  0.00234073     0.29300
F3307       F  0.51896962  0.71286682  0.00503154    -0.20100
H3308       H  0.99716947  0.65617565  0.00757390     0.17600
H3309       H  0.61408476  0.66518229  0.98605916     0.17600
F3310       F  0.59271991  0.60892208  0.99081592    -0.20100
C3311       C  0.58337588  0.86799383  0.98644236    -0.21600
C3312       C  0.56109209  0.87441621  0.51263793    -0.09600
C3313       C  0.55134583  0.84962653  0.53326507     0.29200
C3314       C  0.56221792  0.81922497  0.52775984    -0.21600
C3315       C  0.58394010  0.81281134  0.00115174    -0.09600
C3316       C  0.59399014  0.83788831  0.98085344     0.29300
F3317       F  0.61171356  0.83319038  0.95388877    -0.20100
H3318       H  0.58991044  0.88634040  0.96920020     0.17600
H3319       H  0.55389895  0.80035488  0.54361046     0.17600
F3320       F  0.52940042  0.85421966  0.55699977    -0.20100
C3321       C  0.49930471  0.59672453  0.65498913    -0.21600
C3322       C  0.98546171  0.58122753  0.68154083    -0.09600
C3323       C  0.97472948  0.54977924  0.67788928     0.29200
C3324       C  0.97949671  0.53423661  0.64896515    -0.21600
C3325       C  0.99396117  0.54975774  0.62245238    -0.09600
C3326       C  0.50285800  0.58167696  0.62566738     0.29300
F3327       F  0.51562303  0.59820635  0.60034615    -0.20100
H3328       H  0.50807816  0.62064877  0.65676193     0.17600
H3329       H  0.97007204  0.51055749  0.64674458     0.17600
F3330       F  0.95786038  0.53440369  0.70161511    -0.20100
C3331       C  0.50964185  0.55987820  0.80571785    -0.21600
C3332       C  0.99291114  0.58872376  0.80302283    -0.09600
C3333       C  0.99172520  0.60850593  0.82965666     0.29200
C3334       C  0.00381219  0.59895080  0.85836095    -0.21600
C3335       C  0.01741195  0.56965656  0.86138880    -0.09600
C3336       C  0.52183366  0.55044797  0.83461251     0.29300
F3337       F  0.53490055  0.52180931  0.83718338    -0.20100
H3338       H  0.51346484  0.54498375  0.78561009     0.17600
H3339       H  0.00003327  0.61332943  0.87902783     0.17600
F3340       F  0.97971272  0.63765597  0.82773666    -0.20100
C3341       C  0.88706802  0.69680711  0.76255488    -0.21600
C3342       C  0.86748353  0.69462430  0.73634520    -0.09600
C3343       C  0.87830343  0.67651165  0.71033393     0.29200
C3344       C  0.90672279  0.65979215  0.71151124    -0.21600
C3345       C  0.92509863  0.66037150  0.73855000    -0.09600
C3346       C  0.91544028  0.67991215  0.76372823     0.29300
F3347       F  0.93334652  0.68244782  0.78977644    -0.20100
H3348       H  0.87986589  0.71069355  0.78268913     0.17600
H3349       H  0.91361397  0.64524216  0.69176182     0.17600
F3350       F  0.86116394  0.67445885  0.68370109    -0.20100
C3351       C  0.56463194  0.64596257  0.71529894    -0.21600
C3352       C  0.53822390  0.66190577  0.72756093    -0.09600
C3353       C  0.54360818  0.68838276  0.74627544     0.29200
C3354       C  0.57460160  0.69727063  0.75432080    -0.21600
C3355       C  0.60078028  0.68002134  0.74381174    -0.09600
C3356       C  0.59552643  0.65461600  0.72365602     0.29300
F3357       F  0.62042944  0.63828261  0.71184337    -0.20100
H3358       H  0.56105397  0.62473536  0.70199831     0.17600
H3359       H  0.57826984  0.71816210  0.76809027     0.17600
F3360       F  0.51854878  0.70362802  0.75943270    -0.20100
loop_ 
_geom_bond_atom_site_label_1 
_geom_bond_atom_site_label_2 
_geom_bond_distance 
_geom_bond_site_symmetry_2 
_ccdc_geom_bond_type 
C1            C2   1.535       .  S
C1            C5   1.544       .  S
C1         C1687   1.505       .  S
C1          C392   1.519       .  S
C2            H9   1.086       .  S
C2            C3   1.370       .  D
C3         C1684   1.563       .  S
C3          C405   1.501       .  S
C4            C8   1.546   1_655  S
C4         C1683   1.563       .  S
C4         C1686   1.565       .  S
C4           H10   1.110       .  S
C5           H11   1.082       .  S
C5            C6   1.375       .  D
C6         C1684   1.564       .  S
C6          C382   1.512       .  S
C7         C1681   1.504   1_455  S
C7           H12   1.091       .  S
C7            C8   1.344       .  D
C8          C412   1.462       .  S
O13         Eu49   2.480       .  S
O13        C1704   1.292       .  A
O14        Eu468   2.490       .  S
O14          C25   1.294       .  A
O15        Eu861   2.454       .  S
O15          C26   1.289       .  A
O16         Eu21   2.442       .  S
O16          C27   1.286       .  A
O17        Eu471   2.434       .  S
O17          C27   1.287       .  A
O18         Eu50   2.432       .  S
O18          C26   1.288       .  A
O19        Eu861   2.437       .  S
O19          C25   1.287       .  A
O20         Eu21   2.381       .  S
O20          C24   1.278       .  A
Eu21        O855   2.448   1_545  S
Eu21        O859   2.435       .  S
Eu21         O31   2.355       .  S
Eu21         O22   2.327       .  S
Eu21        O863   2.343   1_545  S
Eu21        O869   2.345   1_545  S
O22        Eu471   2.354       .  S
O22       Eu1308   2.346   1_545  S
O23         Eu50   2.336       .  S
O23        Eu861   2.341       .  S
O23       Eu2569   2.349       .  S
C24        O1693   1.293       .  A
C24         C395   1.449       .  S
C25         C312   1.478       .  S
C26         C292   1.466       .  S
C27         C342   1.447       .  S
H28          O29   0.967       .  S
O29         Eu50   2.359       .  S
O29        Eu861   2.350       .  S
O29        Eu468   2.351       .  S
H30          O31   0.965       .  S
O31       Eu1729   2.341       .  S
O31        Eu471   2.352       .  S
O32         Eu48   2.469       .  S
O32          C55   1.290       .  A
O33         Eu49   2.476       .  S
O33         C476   1.294   1_545  A
O34         Eu50   2.518       .  S
O34          C57   1.301       .  A
O35         Eu51   2.519       .  S
O35          C58   1.301       .  A
O36         Eu51   2.510       .  S
O36        C2159   1.299   1_554  A
O37       Eu1730   2.521   1_455  S
O37          C60   1.301       .  A
O38         Eu52   2.518       .  S
O38          C61   1.301       .  A
O39        Eu892   2.554   1_545  S
O39        C1742   1.308   1_455  A
O40       Eu1730   2.394   1_455  S
O40         C481   1.282       .  A
O41         Eu51   2.429       .  S
O41          C62   1.286       .  A
O42        Eu468   2.447       .  S
O42          C57   1.289       .  A
O43        Eu889   2.417       .  S
O43          C60   1.284       .  A
O44         Eu49   2.437       .  S
O44          C59   1.288       .  A
O45         Eu48   2.389       .  S
O45         C898   1.281       .  A
O46       Eu1732   2.389       .  S
O46          C55   1.282       .  A
O47         Eu52   2.437       .  S
O47         C896   1.288       .  A
Eu48        O434   2.502   1_554  S
Eu48        O462   2.445   1_554  S
Eu48         O66   2.377       .  S
Eu48       O1282   2.352   1_554  S
Eu48        O449   2.348   1_554  S
Eu48        O474   2.351       .  S
Eu49        O883   2.418   1_545  S
Eu49       O2543   2.348   1_545  S
Eu49       O1711   2.343   1_455  S
Eu49        O473   2.361       .  S
Eu49        O904   2.336   1_545  S
Eu50       O1717   2.525       .  S
Eu50       O1720   2.398       .  S
Eu50         O54   2.355       .  S
Eu50       O1744   2.347       .  S
Eu51        O437   2.434   1_554  S
Eu51        O442   2.352   1_554  S
Eu51        O451   2.350   1_554  S
Eu51       O1733   2.373       .  S
Eu51        O906   2.364   1_545  S
Eu52        O879   2.543       .  S
Eu52       O1726   2.389   1_455  S
Eu52        O893   2.353       .  S
Eu52        O484   2.341   1_554  S
Eu52       O1746   2.354   1_455  S
Eu52       O2154   2.369   1_455  S
O53        Eu469   2.361   1_554  S
O53       Eu1731   2.372   1_455  S
O53        Eu892   2.360   1_545  S
O54        Eu468   2.346       .  S
O54       Eu2152   2.370       .  S
C55         C282   1.451       .  S
C56         O453   1.294   1_564  A
C56         O887   1.289       .  A
C56         C322   1.482       .  S
C57         C352   1.496       .  S
C58         O885   1.281   1_545  A
C58         C332   1.474       .  S
C59        O2136   1.298   1_455  A
C59         C362   1.496       .  S
C60         C302   1.476       .  S
C61         O460   1.283   1_554  A
C61         C372   1.473       .  S
C62        O1719   1.307       .  A
C62         C385   1.495       .  S
H63          O64   0.963       .  S
O64        Eu889   2.334       .  S
O64       Eu1730   2.346   1_455  S
O64        Eu472   2.338       .  S
H65          O66   0.965       .  S
O66        Eu891   2.357       .  S
O66       Eu1732   2.356       .  S
C67          C68   1.517       .  S
C67          C73   1.532       .  S
C67          C71   1.548       .  S
C67         C272   1.516       .  S
C68          H75   1.089       .  S
C68          C69   1.352       .  D
C69         C910   1.541   1_545  S
C69         C325   1.470   1_545  S
C70          C72   1.546       .  S
C70         C909   1.540       .  S
C70         C914   1.549       .  S
C70          H76   1.110       .  S
C71          H77   1.079       .  S
C71         C912   1.374   1_545  D
C72         C911   1.372       .  D
C72         C265   1.489       .  S
C73          H78   1.087       .  S
C73          C74   1.359       .  D
C74         C910   1.550   1_545  S
C74         C335   1.484       .  S
O79        Eu115   2.524       .  S
O79          C90   1.301       .  A
O80        Eu114   2.474       .  S
O80          C91   1.291       .  A
O81         Eu87   2.467       .  S
O81          C92   1.291       .  A
O82         Eu87   2.447       .  S
O82          C93   1.287       .  A
O83        Eu117   2.418       .  S
O83          C93   1.285       .  A
O84        Eu116   2.432       .  S
O84          C92   1.288       .  A
O85         Eu87   2.433       .  S
O85          C91   1.286       .  A
O86         Eu87   2.355       .  S
O86          C90   1.273       .  A
Eu87         O97   2.363       .  S
Eu87         O89   2.352       .  S
Eu87         O88   2.327       .  S
Eu87         O95   2.339       .  S
O88        Eu117   2.356       .  S
O88        Eu114   2.352       .  S
O89        Eu115   2.361       .  S
O89        Eu116   2.340       .  S
C90         C415   1.456       .  S
C91         C192   1.467       .  S
C92         C252   1.468       .  S
C93         C275   1.442       .  S
H94          O95   0.968       .  S
O95        Eu116   2.357       .  S
O95        Eu114   2.346       .  S
H96          O97   0.965       .  S
O97        Eu115   2.335       .  S
O97        Eu117   2.346       .  S
O98        Eu114   2.467       .  S
O98         C121   1.290       .  A
O99        Eu115   2.517       .  S
O99         C122   1.301       .  A
O100       Eu116   2.501       .  S
O100        C123   1.298       .  A
O101       Eu117   2.525       .  S
O101        C124   1.303       .  A
O102       Eu117   2.535       .  S
O102        C125   1.303       .  A
O103       Eu116   2.536       .  S
O103        C126   1.304       .  A
O104       Eu118   2.527       .  S
O104        C127   1.302       .  A
O105       Eu118   2.551       .  S
O105        C128   1.307       .  A
O106       Eu116   2.398       .  S
O106        C127   1.283       .  A
O107       Eu117   2.414       .  S
O107        C128   1.284       .  A
O108       Eu114   2.441       .  S
O108        C123   1.288       .  A
O109       Eu115   2.404       .  S
O109        C126   1.282       .  A
O110       Eu115   2.442       .  S
O110        C125   1.290       .  A
O111       Eu114   2.383       .  S
O111        C124   1.279       .  A
O112       Eu118   2.400       .  S
O112        C121   1.282       .  A
O113       Eu118   2.417       .  S
O113        C122   1.286       .  A
Eu114       O132   2.355       .  S
Eu114       O120   2.339       .  S
Eu115       O119   2.367       .  S
Eu115       O130   2.345       .  S
Eu116       O130   2.340       .  S
Eu116       O120   2.366       .  S
Eu117       O119   2.367       .  S
Eu117       O132   2.354       .  S
Eu118       O119   2.361       .  S
Eu118       O130   2.354       .  S
Eu118       O132   2.341       .  S
Eu118       O120   2.360       .  S
C121        C242   1.447       .  S
C122        C202   1.485       .  S
C123        C262   1.491       .  S
C124        C212   1.480       .  S
C125        C232   1.512       .  S
C126        C185   1.478       .  S
C127        C225   1.476       .  S
C128        C402   1.503       .  S
H129        O130   0.964       .  S
H131        O132   0.963       .  S
C133        C139   1.538       .  S
C133        C137   1.553       .  S
C133        C554   1.538       .  S
C133        C365   1.546       .  S
C134        C553   1.538   1_554  S
C134        H141   1.087       .  S
C134        C135   1.364       .  D
C135        C556   1.538   1_554  S
C135        C195   1.488       .  S
C136        C140   1.547       .  S
C136        C138   1.538       .  S
C136        C555   1.538       .  S
C136        H142   1.106       .  S
C137        H143   1.079       .  S
C137        C138   1.375       .  D
C138        C375   1.493       .  S
C139        H144   1.086       .  S
C139        C140   1.368       .  D
C140        C182   1.503       .  S
C145        C146   1.539       .  S
C145        C151   1.542       .  S
C145        C149   1.547       .  S
C145        C295   1.528       .  S
C146       H1833   1.080       .  S
C146        C147   1.355       .  D
C147        C148   1.523       .  S
C147       C1935   1.471       .  S
C148        C152   1.523       .  S
C148        C150   1.527       .  S
C148        H154   1.110       .  S
C149        H155   1.086       .  S
C149        C150   1.372       .  D
C150        C285   1.467       .  S
C151        H156   1.086       .  S
C151        C152   1.368       .  D
C152        C245   1.480       .  S
H153       C1826   1.080       .  S
C157        C158   1.517       .  S
C157        C163   1.525       .  S
C157        C161   1.544       .  S
C157        C345   1.515       .  S
C158        H165   1.088       .  S
C158        C159   1.357       .  D
C159        C160   1.554       .  S
C159        C205   1.481       .  S
C160        C164   1.550       .  S
C160        C162   1.562       .  S
C160        H166   1.109       .  S
C161        H167   1.079       .  S
C161        C162   1.377       .  D
C162        C355   1.514       .  S
C163        H588   1.088       .  S
C163        C164   1.354       .  D
C164        C635   1.478       .  S
H168        C583   1.088   1_554  S
C169        C170   1.535       .  S
C169        C175   1.541       .  S
C169       C1013   1.556   1_545  S
C169        C235   1.550       .  S
C170        H177   1.085       .  S
C170       C1011   1.368       .  D
C171        C172   1.545       .  S
C171       C1010   1.369       .  D
C171        C315   1.504       .  S
C172        C176   1.543       .  S
C172        C174   1.543       .  S
C172        H178   1.108       .  S
C173       C1009   1.554       .  S
C173        H179   1.083       .  S
C173        C174   1.381       .  D
C174        C222   1.494       .  S
C175        H180   1.086       .  S
C175       C1016   1.365   1_545  D
C176       C1015   1.363       .  D
C176        C305   1.497       .  S
C181        C182   1.411       .  A
C181        C186   1.404       .  A
C181        H188   1.083       .  S
C182        C183   1.409       .  A
C183        C184   1.405       .  A
C183        F190   1.356       .  S
C184        C185   1.405       .  A
C184        H189   1.084       .  S
C185        C186   1.406       .  A
C186        F187   1.358       .  S
C191        C192   1.403       .  A
C191        C196   1.398       .  A
C191        H198   1.084       .  S
C192        C193   1.401       .  A
C193        C194   1.401       .  A
C193        F200   1.357       .  S
C194        C195   1.408       .  A
C194        H199   1.082       .  S
C195        C196   1.407       .  A
C196        F197   1.357       .  S
C201        C202   1.400       .  A
C201        C206   1.402       .  A
C201        H208   1.083       .  S
C202        C203   1.416       .  A
C203        C204   1.399       .  A
C203        F210   1.358       .  S
C204        C205   1.397       .  A
C204        H209   1.083       .  S
C205        C206   1.413       .  A
C206        F207   1.357       .  S
C211        C212   1.400       .  A
C211        C216   1.401       .  A
C211        H218   1.083       .  S
C212        C213   1.417       .  A
C213        C214   1.397       .  A
C213        F220   1.359       .  S
C214        C215   1.395       .  A
C214        H219   1.084       .  S
C215        C584   1.481       .  S
C215        C216   1.413       .  A
C216        F217   1.357       .  S
C221        C222   1.404       .  A
C221        C226   1.392       .  A
C221        H228   1.082       .  S
C222        C223   1.412       .  A
C223        C224   1.409       .  A
C223        F230   1.356       .  S
C224        C225   1.405       .  A
C224        H229   1.083       .  S
C225        C226   1.407       .  A
C226        F227   1.359       .  S
C231        C232   1.410       .  A
C231        C236   1.397       .  A
C231        H238   1.083       .  S
C232        C233   1.413       .  A
C233        C234   1.419       .  A
C233        F240   1.356       .  S
C234        C235   1.416       .  A
C234        H239   1.080       .  S
C235        C236   1.412       .  A
C236        F237   1.359       .  S
C241        C242   1.394       .  A
C241        C246   1.388       .  A
C241        H248   1.084       .  S
C242        C243   1.404       .  A
C243        C244   1.397       .  A
C243        F250   1.358       .  S
C244        C245   1.403       .  A
C244        H249   1.083       .  S
C245        C246   1.412       .  A
C246        F247   1.354       .  S
C251        C252   1.405       .  A
C251        C256   1.403       .  A
C251        H258   1.083       .  S
C252        C253   1.405       .  A
C253        C254   1.390       .  A
C253        F260   1.358       .  S
C254        C255   1.400       .  A
C254        H259   1.084       .  S
C255       C1827   1.472       .  S
C255        C256   1.404       .  A
C256        F257   1.357       .  S
C261        C262   1.406       .  A
C261        C266   1.406       .  A
C261        H268   1.083       .  S
C262        C263   1.413       .  A
C263        C264   1.398       .  A
C263        F270   1.358       .  S
C264        C265   1.401       .  A
C264        H269   1.084       .  S
C265        C266   1.410       .  A
C266        F267   1.357       .  S
C271        C272   1.416       .  A
C271        C276   1.385       .  A
C271        H278   1.084       .  S
C272        C273   1.409       .  A
C273        C274   1.394       .  A
C273        F280   1.352       .  S
C274        C275   1.402       .  A
C274        H279   1.084       .  S
C275        C276   1.390       .  A
C276        F277   1.358       .  S
C281        C282   1.400       .  A
C281        C286   1.383       .  A
C281        H288   1.084       .  S
C282        C283   1.405       .  A
C283        C284   1.401       .  A
C283        F290   1.358       .  S
C284        C285   1.405       .  A
C284        H289   1.083       .  S
C285        C286   1.401       .  A
C286       F1967   1.358       .  S
F287       C1966   1.358   1_455  S
C291        C292   1.399       .  A
C291        C296   1.400       .  A
C291        H298   1.083       .  S
C292        C293   1.402       .  A
C293        C294   1.388       .  A
C293        F300   1.358       .  S
C294        C295   1.409       .  A
C294        H299   1.075       .  S
C295        C296   1.415       .  A
C296        F297   1.355       .  S
C301        C302   1.401       .  A
C301        C306   1.403       .  A
C301        H308   1.083       .  S
C302        C303   1.409       .  A
C303        C304   1.404       .  A
C303        F310   1.358       .  S
C304        C305   1.404       .  A
C304        H309   1.083       .  S
C305        C306   1.413       .  A
C306        F307   1.357       .  S
C311        C312   1.403       .  A
C311        C316   1.399       .  A
C311        H318   1.084       .  S
C312        C313   1.401       .  A
C313        C314   1.404       .  A
C313        F320   1.357       .  S
C314        C315   1.413       .  A
C314        H319   1.081       .  S
C315        C316   1.413       .  A
C316        F317   1.357       .  S
C321        C326   1.396       .  A
C321       C1162   1.404       .  A
C321        H328   1.083   1_554  S
C322        C323   1.414       .  A
C322       C1161   1.403   1_565  A
C323        C324   1.396       .  A
C323        F330   1.357       .  S
C324        C325   1.397       .  A
C324        H329   1.084       .  S
C325       C1166   1.409   1_565  A
C326       C1165   1.407       .  A
C326        F327   1.358       .  S
C331        C332   1.409       .  A
C331        C336   1.395       .  A
C331        H338   1.084       .  S
C332        C333   1.401       .  A
C333        C334   1.403       .  A
C333        F340   1.357       .  S
C334        C335   1.412       .  A
C334        H339   1.083       .  S
C335        C336   1.401       .  A
C336        F337   1.358   1_545  S
C341        C342   1.390       .  A
C341        C346   1.386       .  A
C341        H348   1.084       .  S
C342        C343   1.401       .  A
C343        C344   1.396       .  A
C343        F770   1.358       .  S
C344        C345   1.407       .  A
C344        H769   1.078       .  S
C345        C346   1.417       .  A
C346        F347   1.359       .  S
H349        C764   1.078       .  S
F350        C763   1.358       .  S
C351        C352   1.402       .  A
C351        C356   1.407       .  A
C351        H358   1.083       .  S
C352        C353   1.411       .  A
C353        C354   1.407       .  A
C353        F360   1.357       .  S
C354        C355   1.407       .  A
C354        H359   1.081       .  S
C355        C356   1.420       .  A
C356        F357   1.356       .  S
C361        C362   1.406       .  A
C361        C366   1.412       .  A
C361       H2048   1.083   1_455  S
C362        C363   1.409       .  A
C363        C364   1.394       .  A
C363        F370   1.358       .  S
C364        C365   1.408       .  A
C364        H369   1.083       .  S
C365        C366   1.421       .  A
C366        F367   1.352       .  S
H368       C2041   1.083       .  S
C371        C376   1.392       .  A
C371        C792   1.405       .  A
C371        H378   1.085       .  S
C372        C373   1.402       .  A
C372        C791   1.404   1_554  A
C373        C374   1.406       .  A
C373        F380   1.356       .  S
C374        C795   1.412       .  A
C374        H379   1.082       .  S
C375        C376   1.408       .  A
C375        C794   1.411       .  A
C376        F377   1.357       .  S
C381        C386   1.411       .  A
C381       C2062   1.407   1_455  A
C381        H388   1.083       .  S
C382        C383   1.416       .  A
C382       C2061   1.407       .  A
C383        C384   1.409       .  A
C383        F390   1.357       .  S
C384        C385   1.403       .  A
C384        H389   1.083       .  S
C385       C2066   1.412       .  A
C386       C2065   1.413   1_455  A
C386        F387   1.358       .  S
C391        C396   1.397       .  A
C391       C2072   1.411   1_455  A
C391        H398   1.079       .  S
C392        C393   1.417       .  A
C392       C2071   1.411       .  A
C393        C394   1.390       .  A
C393        F400   1.358       .  S
C394        C395   1.396       .  A
C394        H399   1.084       .  S
C395       C2076   1.401       .  A
C396       C2075   1.401       .  A
C396        F397   1.358       .  S
C401        C402   1.403       .  A
C401        C406   1.408       .  A
C401        H408   1.083       .  S
C402        C403   1.421       .  A
C403        C404   1.405       .  A
C403        F410   1.358       .  S
C404        C405   1.399       .  A
C404        H409   1.083       .  S
C405        C406   1.415       .  A
C406        F407   1.357       .  S
C411        C412   1.401       .  A
C411        C416   1.394       .  A
C411        H418   1.084       .  S
C412        C413   1.410       .  A
C413        C414   1.398       .  A
C413        F420   1.357       .  S
C414        C415   1.399       .  A
C414        H419   1.084       .  S
C415        C416   1.407       .  A
C416        F417   1.357       .  S
C421        C422   1.535       .  S
C421       C2107   1.505       .  S
C421        C425   1.544       .  S
C421        C812   1.518       .  S
C422        H429   1.086       .  S
C422        C423   1.370       .  D
C423       C2104   1.562       .  S
C423        C825   1.500       .  S
C424       C2103   1.563       .  S
C424        C428   1.546   1_655  S
C424       C2106   1.564       .  S
C424        H430   1.110       .  S
C425        H431   1.082       .  S
C425        C426   1.375       .  D
C426       C2104   1.564       .  S
C426        C802   1.513       .  S
C427       C2101   1.505   1_455  S
C427        H432   1.091       .  S
C427        C428   1.344       .  D
C428        C832   1.463       .  S
O433       Eu469   2.478       .  S
O433       C2124   1.292       .  A
O434        C445   1.296       .  A
O435      Eu1281   2.450       .  S
O435        C446   1.288       .  A
O436       Eu441   2.443       .  S
O436        C447   1.287       .  A
O437        C447   1.287       .  A
O438       Eu470   2.432       .  S
O438        C446   1.288       .  A
O439      Eu1281   2.414       .  S
O439        C445   1.284       .  A
O440       Eu441   2.386       .  S
O440        C444   1.279       .  A
Eu441      O1275   2.450   1_545  S
Eu441      O1279   2.437       .  S
Eu441       O451   2.353       .  S
Eu441      O1283   2.344   1_545  S
Eu441       O442   2.328       .  S
Eu441      O1289   2.347   1_545  S
O442       Eu888   2.346   1_546  S
O443      Eu1281   2.334       .  S
O443      Eu2989   2.346       .  S
O443       Eu470   2.336       .  S
C444       O2113   1.292       .  A
C444        C815   1.448       .  S
C445        C732   1.484       .  S
C446        C712   1.464       .  S
C447        C762   1.447       .  S
H448        O449   0.967       .  S
O449      Eu1281   2.343       .  S
O449       Eu470   2.351       .  S
H450        O451   0.965       .  S
O451      Eu2149   2.340       .  S
O452       Eu468   2.468       .  S
O452        C475   1.290       .  A
O453       Eu469   2.476       .  S
O454       Eu470   2.517       .  S
O454        C477   1.301       .  A
O455       Eu471   2.518       .  S
O455        C478   1.301       .  A
O456       Eu471   2.507       .  S
O456       C1739   1.299       .  A
O457      Eu2150   2.520   1_455  S
O457        C480   1.301       .  A
O458       Eu472   2.523       .  S
O458        C481   1.301       .  A
O459      Eu1312   2.546   1_545  S
O459       C2162   1.306   1_455  A
O460      Eu2150   2.396   1_455  S
O461       Eu471   2.435       .  S
O461        C482   1.287       .  A
O462        C477   1.288       .  A
O463      Eu1309   2.417       .  S
O463        C480   1.284       .  A
O464       Eu469   2.436       .  S
O464        C479   1.288       .  A
O465       Eu468   2.385       .  S
O465       C1318   1.280       .  A
O466      Eu2152   2.386       .  S
O466        C475   1.281       .  A
O467       Eu472   2.440       .  S
O467       C1316   1.289       .  A
Eu468       O862   2.349       .  S
Eu468       O486   2.376       .  S
Eu469      O1303   2.415   1_545  S
Eu469      O2963   2.351   1_545  S
Eu469      O2131   2.340   1_455  S
Eu469      O1324   2.335   1_545  S
Eu470      O2137   2.521       .  S
Eu470      O2140   2.396       .  S
Eu470      O2164   2.344       .  S
Eu470       O474   2.357   1_556  S
Eu471      O2153   2.370       .  S
Eu471      O1326   2.363   1_545  S
Eu472      O1299   2.546       .  S
Eu472      O2146   2.389   1_455  S
Eu472      O1313   2.356       .  S
Eu472      O2166   2.355   1_455  S
Eu472      O1734   2.368   1_455  S
O473      Eu2151   2.370   1_455  S
O473      Eu1312   2.356   1_545  S
O474      Eu1732   2.368       .  S
C475        C702   1.450       .  S
C476       O1307   1.288       .  A
C476        C742   1.481       .  S
C477        C772   1.494       .  S
C478       O1305   1.281   1_545  A
C478        C752   1.474       .  S
C479       O1716   1.299   1_456  A
C479        C782   1.499       .  S
C480        C722   1.475       .  S
C481        C792   1.474       .  S
C482       O2139   1.306       .  A
C482        C805   1.496       .  S
H483        O484   0.963       .  S
O484      Eu1309   2.335       .  S
O484      Eu2150   2.344   1_455  S
H485        O486   0.965       .  S
O486      Eu1311   2.358       .  S
O486      Eu2152   2.355       .  S
C487        C488   1.516       .  S
C487        C493   1.532       .  S
C487        C491   1.547       .  S
C487        C692   1.515       .  S
C488        H495   1.089       .  S
C488        C489   1.351       .  D
C489       C1330   1.540   1_545  S
C489        C745   1.469   1_545  S
C490       C1329   1.540       .  S
C490       C1334   1.546       .  S
C490        C492   1.549       .  S
C490        H496   1.110       .  S
C491        H497   1.078       .  S
C491       C1332   1.374   1_545  D
C492       C1331   1.376       .  D
C492        C685   1.495       .  S
C493        H498   1.087       .  S
C493        C494   1.360       .  D
C494       C1330   1.550   1_545  S
C494        C755   1.485       .  S
O499       Eu535   2.530       .  S
O499        C510   1.303       .  A
O500       Eu534   2.470       .  S
O500        C511   1.290       .  A
O501       Eu507   2.460       .  S
O501        C512   1.290       .  A
O502       Eu507   2.443       .  S
O502        C513   1.286       .  A
O503       Eu537   2.419       .  S
O503        C513   1.285       .  A
O504       Eu536   2.433       .  S
O504        C512   1.288       .  A
O505       Eu507   2.437       .  S
O505        C511   1.286       .  A
O506       Eu507   2.353       .  S
O506        C510   1.273       .  A
Eu507       O517   2.364       .  S
Eu507       O509   2.354       .  S
Eu507       O508   2.324       .  S
Eu507       O515   2.336       .  S
O508       Eu537   2.355       .  S
O508       Eu534   2.353       .  S
O509       Eu535   2.362       .  S
O509       Eu536   2.339       .  S
C510        C835   1.457       .  S
C511        C612   1.467       .  S
C512        C672   1.466       .  S
C513        C695   1.441       .  S
H514        O515   0.968       .  S
O515       Eu536   2.357       .  S
O515       Eu534   2.346       .  S
H516        O517   0.965       .  S
O517       Eu535   2.336       .  S
O517       Eu537   2.345       .  S
O518       Eu534   2.466       .  S
O518        C541   1.290       .  A
O519       Eu535   2.524       .  S
O519        C542   1.302       .  A
O520       Eu536   2.502       .  S
O520        C543   1.298       .  A
O521       Eu537   2.518       .  S
O521        C544   1.302       .  A
O522       Eu537   2.527       .  S
O522        C545   1.302       .  A
O523       Eu536   2.539       .  S
O523        C546   1.304       .  A
O524       Eu538   2.523       .  S
O524        C547   1.301       .  A
O525       Eu538   2.550       .  S
O525        C548   1.307       .  A
O526       Eu536   2.401       .  S
O526        C547   1.283       .  A
O527       Eu537   2.412       .  S
O527        C548   1.284       .  A
O528       Eu534   2.447       .  S
O528        C543   1.290       .  A
O529       Eu535   2.405       .  S
O529        C546   1.282       .  A
O530       Eu535   2.448       .  S
O530        C545   1.291       .  A
O531       Eu534   2.388       .  S
O531        C544   1.280       .  A
O532       Eu538   2.399       .  S
O532        C541   1.281       .  A
O533       Eu538   2.418       .  S
O533        C542   1.286       .  A
Eu534       O552   2.356       .  S
Eu534       O540   2.338       .  S
Eu535       O539   2.367       .  S
Eu535       O550   2.347       .  S
Eu536       O550   2.341       .  S
Eu536       O540   2.366       .  S
Eu537       O539   2.366       .  S
Eu537       O552   2.355       .  S
Eu538       O539   2.360       .  S
Eu538       O550   2.356       .  S
Eu538       O552   2.341       .  S
Eu538       O540   2.359       .  S
C541        C662   1.447       .  S
C542        C622   1.488       .  S
C543        C682   1.496       .  S
C544        C632   1.477       .  S
C545        C652   1.511       .  S
C546        C605   1.479       .  S
C547        C645   1.475       .  S
C548        C822   1.502       .  S
H549        O550   0.964       .  S
H551        O552   0.963       .  S
C553        C559   1.537       .  S
C553        C557   1.553       .  S
C553        C785   1.546       .  S
C554        H561   1.087       .  S
C554        C555   1.365       .  D
C555        C615   1.487       .  S
C556        C560   1.548       .  S
C556        C558   1.539       .  S
C556        H562   1.106       .  S
C557        H563   1.079   1_556  S
C557        C558   1.376       .  D
C558        C795   1.494   1_556  S
C559        H564   1.086       .  S
C559        C560   1.368       .  D
C560        C602   1.504       .  S
C565        C566   1.537       .  S
C565        C571   1.542       .  S
C565        C569   1.547       .  S
C565        C715   1.528       .  S
C566       H2253   1.080       .  S
C566        C567   1.355       .  D
C567        C568   1.522       .  S
C567       C2355   1.470       .  S
C568        C572   1.524       .  S
C568        C570   1.526       .  S
C568        H574   1.110       .  S
C569        H575   1.086       .  S
C569        C570   1.372       .  D
C570        C705   1.467       .  S
C571        H576   1.086       .  S
C571        C572   1.369       .  D
C572        C665   1.480       .  S
H573       C2246   1.080       .  S
C577        C578   1.518       .  S
C577        C583   1.525       .  S
C577        C581   1.543       .  S
C577        C765   1.515       .  S
C578        H585   1.088       .  S
C578        C579   1.357       .  D
C579        C580   1.556       .  S
C579        C625   1.485       .  S
C580        C584   1.552   1_556  S
C580        C582   1.564       .  S
C580        H586   1.109       .  S
C581        H587   1.079       .  S
C581        C582   1.377       .  D
C582        C775   1.512       .  S
C583        C584   1.354   1_556  D
C589        C590   1.534       .  S
C589        C595   1.540       .  S
C589       C1433   1.556   1_545  S
C589        C655   1.549       .  S
C590        H597   1.084       .  S
C590       C1431   1.368       .  D
C591        C592   1.535       .  S
C591       C1430   1.364       .  D
C591        C735   1.482       .  S
C592        C596   1.544       .  S
C592        C594   1.540       .  S
C592        H598   1.109       .  S
C593       C1429   1.558       .  S
C593        H599   1.082       .  S
C593        C594   1.382       .  D
C594        C642   1.496       .  S
C595        H600   1.086       .  S
C595       C1436   1.364   1_545  D
C596       C1435   1.364       .  D
C596        C725   1.497       .  S
C601        C602   1.412       .  A
C601        C606   1.404       .  A
C601        H608   1.083       .  S
C602        C603   1.409       .  A
C603        C604   1.405       .  A
C603        F610   1.356       .  S
C604        C605   1.406       .  A
C604        H609   1.084       .  S
C605        C606   1.407       .  A
C606        F607   1.358       .  S
C611        C612   1.403       .  A
C611        C616   1.398       .  A
C611        H618   1.084       .  S
C612        C613   1.401       .  A
C613        C614   1.400       .  A
C613        F620   1.357       .  S
C614        C615   1.408       .  A
C614        H619   1.082       .  S
C615        C616   1.407       .  A
C616        F617   1.358       .  S
C621        C622   1.400       .  A
C621        C626   1.403       .  A
C621        H628   1.083       .  S
C622        C623   1.417       .  A
C623        C624   1.400       .  A
C623        F630   1.359       .  S
C624        C625   1.397       .  A
C624        H629   1.083       .  S
C625        C626   1.414       .  A
C626        F627   1.357       .  S
C631        C632   1.401       .  A
C631        C636   1.401       .  A
C631        H638   1.083       .  S
C632        C633   1.415       .  A
C633        C634   1.396       .  A
C633        F640   1.359       .  S
C634        C635   1.395       .  A
C634        H639   1.084       .  S
C635        C636   1.412       .  A
C636        F637   1.358       .  S
C641        C642   1.405       .  A
C641        C646   1.392       .  A
C641        H648   1.082       .  S
C642        C643   1.412       .  A
C643        C644   1.409       .  A
C643        F650   1.356       .  S
C644        C645   1.405       .  A
C644        H649   1.083       .  S
C645        C646   1.405       .  A
C646        F647   1.359       .  S
C651        C652   1.409       .  A
C651        C656   1.396       .  A
C651        H658   1.083       .  S
C652        C653   1.414       .  A
C653        C654   1.419       .  A
C653        F660   1.356       .  S
C654        C655   1.415       .  A
C654        H659   1.080       .  S
C655        C656   1.413       .  A
C656        F657   1.359       .  S
C661        C662   1.394       .  A
C661        C666   1.388       .  A
C661        H668   1.084       .  S
C662        C663   1.403       .  A
C663        C664   1.397       .  A
C663        F670   1.358       .  S
C664        C665   1.404       .  A
C664        H669   1.083       .  S
C665        C666   1.412       .  A
C666        F667   1.354       .  S
C671        C672   1.405       .  A
C671        C676   1.402       .  A
C671        H678   1.083       .  S
C672        C673   1.404       .  A
C673        C674   1.388       .  A
C673        F680   1.358       .  S
C674        C675   1.401       .  A
C674        H679   1.084       .  S
C675       C2247   1.471       .  S
C675        C676   1.403       .  A
C676        F677   1.357       .  S
C681        C682   1.408       .  A
C681        C686   1.408       .  A
C681        H688   1.083       .  S
C682        C683   1.413       .  A
C683        C684   1.398       .  A
C683        F690   1.358       .  S
C684        C685   1.402       .  A
C684        H689   1.083       .  S
C685        C686   1.411       .  A
C686        F687   1.357       .  S
C691        C692   1.416       .  A
C691        C696   1.384       .  A
C691        H698   1.084       .  S
C692        C693   1.409       .  A
C693        C694   1.394       .  A
C693        F700   1.352       .  S
C694        C695   1.402       .  A
C694        H699   1.084       .  S
C695        C696   1.389       .  A
C696        F697   1.358       .  S
C701        C702   1.400       .  A
C701        C706   1.383       .  A
C701        H708   1.084       .  S
C702        C703   1.404       .  A
C703        C704   1.400       .  A
C703        F710   1.358       .  S
C704        C705   1.405       .  A
C704        H709   1.083       .  S
C705        C706   1.402       .  A
C706       F2387   1.358       .  S
F707       C2386   1.358   1_455  S
C711        C712   1.399       .  A
C711        C716   1.399       .  A
C711        H718   1.083       .  S
C712        C713   1.400       .  A
C713        C714   1.388       .  A
C713        F720   1.358       .  S
C714        C715   1.410       .  A
C714        H719   1.075       .  S
C715        C716   1.414       .  A
C716        F717   1.355       .  S
C721        C722   1.401       .  A
C721        C726   1.402       .  A
C721        H728   1.083       .  S
C722        C723   1.408       .  A
C723        C724   1.405       .  A
C723        F730   1.358       .  S
C724        C725   1.405       .  A
C724        H729   1.083       .  S
C725        C726   1.413       .  A
C726        F727   1.357       .  S
C731        C732   1.408       .  A
C731        C736   1.408       .  A
C731        H738   1.080       .  S
C732        C733   1.410       .  A
C733        C734   1.391       .  A
C733        F740   1.359       .  S
C734        C735   1.401       .  A
C734        H739   1.084       .  S
C735        C736   1.404       .  A
C736        F737   1.357       .  S
C741       C1582   1.404       .  A
C741        C746   1.397       .  A
C741        H748   1.083       .  S
C742       C1581   1.403   1_565  A
C742        C743   1.414       .  A
C743        C744   1.396       .  A
C743        F750   1.358       .  S
C744        C745   1.397       .  A
C744        H749   1.084       .  S
C745       C1586   1.409   1_565  A
C746       C1585   1.407       .  A
C746        F747   1.358       .  S
C751        C752   1.409       .  A
C751        C756   1.394       .  A
C751        H758   1.084       .  S
C752        C753   1.400       .  A
C753        C754   1.403       .  A
C753        F760   1.357       .  S
C754        C755   1.413       .  A
C754        H759   1.083       .  S
C755        C756   1.401       .  A
C756        F757   1.357   1_545  S
C761        C762   1.390       .  A
C761        C766   1.386       .  A
C761        H768   1.084       .  S
C762        C763   1.402       .  A
C763        C764   1.397       .  A
C764        C765   1.407       .  A
C765        C766   1.417       .  A
C766        F767   1.359       .  S
C771        C772   1.402       .  A
C771        C776   1.407       .  A
C771        H778   1.083       .  S
C772        C773   1.411       .  A
C773        C774   1.405       .  A
C773        F780   1.358       .  S
C774        C775   1.407       .  A
C774        H779   1.081       .  S
C775        C776   1.420       .  A
C776        F777   1.356       .  S
C781        C782   1.407   1_554  A
C781        C786   1.413       .  A
C781       H2468   1.083   1_455  S
C782        C783   1.410       .  A
C783        C784   1.393       .  A
C783        F790   1.358       .  S
C784        C785   1.408       .  A
C784        H789   1.084       .  S
C785        C786   1.421   1_556  A
C786        F787   1.353       .  S
H788       C2461   1.083       .  S
C791        C796   1.392       .  A
C791        H798   1.085       .  S
C792        C793   1.402       .  A
C793        C794   1.406       .  A
C793        F800   1.356       .  S
C794        H799   1.082       .  S
C795        C796   1.409   1_554  A
C796        F797   1.357       .  S
C801       C2482   1.408   1_455  A
C801        C806   1.410       .  A
C801        H808   1.083       .  S
C802       C2481   1.407       .  A
C802        C803   1.417       .  A
C803        C804   1.409       .  A
C803        F810   1.357       .  S
C804        C805   1.403       .  A
C804        H809   1.083       .  S
C805       C2486   1.412       .  A
C806       C2485   1.413   1_455  A
C806        F807   1.358       .  S
C811       C2492   1.411   1_455  A
C811        C816   1.397       .  A
C811        H818   1.079       .  S
C812       C2491   1.411       .  A
C812        C813   1.417       .  A
C813        C814   1.390       .  A
C813        F820   1.358       .  S
C814        C815   1.396       .  A
C814        H819   1.084       .  S
C815       C2496   1.401       .  A
C816       C2495   1.401       .  A
C816        F817   1.358       .  S
C821        C822   1.403       .  A
C821        C826   1.408       .  A
C821        H828   1.083       .  S
C822        C823   1.422       .  A
C823        C824   1.405       .  A
C823        F830   1.358       .  S
C824        C825   1.399       .  A
C824        H829   1.083       .  S
C825        C826   1.415       .  A
C826        F827   1.357       .  S
C831        C832   1.401       .  A
C831        C836   1.395       .  A
C831        H838   1.084       .  S
C832        C833   1.410       .  A
C833        C834   1.398       .  A
C833        F840   1.357       .  S
C834        C835   1.399       .  A
C834        H839   1.084       .  S
C835        C836   1.408       .  A
C836        F837   1.357       .  S
C841        C842   1.534       .  S
C841       C2527   1.505       .  S
C841        C845   1.542       .  S
C841       C1232   1.515       .  S
C842        H849   1.086       .  S
C842        C843   1.369       .  D
C843       C2524   1.564       .  S
C843       C1245   1.502       .  S
C844       C2523   1.564       .  S
C844        C848   1.547   1_655  S
C844       C2526   1.565       .  S
C844        H850   1.110       .  S
C845        H851   1.082       .  S
C845        C846   1.375       .  D
C846       C2524   1.565       .  S
C846       C1222   1.510       .  S
C847       C2521   1.504   1_455  S
C847        H852   1.091       .  S
C847        C848   1.341       .  D
C848       C1252   1.463       .  S
O853       Eu889   2.471       .  S
O853       C2544   1.291       .  A
O854      Eu1308   2.490       .  S
O854        C865   1.294       .  A
O855        C866   1.288       .  A
O856       Eu861   2.449       .  S
O856        C867   1.288       .  A
O857      Eu1311   2.428       .  S
O857        C867   1.286       .  A
O858       Eu890   2.430       .  S
O858        C866   1.287       .  A
O859        C865   1.286   1_545  A
O860       Eu861   2.380       .  S
O860        C864   1.278       .  A
Eu861       O871   2.355       .  S
Eu861       O862   2.328       .  S
O862      Eu1311   2.357       .  S
O863      Eu1729   2.349   1_565  S
O863       Eu890   2.337       .  S
C864       O2533   1.291       .  A
C864       C1235   1.443       .  S
C865       C1152   1.477       .  S
C866       C1132   1.462       .  S
C867       C1182   1.448       .  S
H868        O869   0.967       .  S
O869       Eu890   2.361       .  S
O869      Eu1308   2.356       .  S
H870        O871   0.965       .  S
O871      Eu2569   2.340       .  S
O871      Eu1311   2.351       .  S
O872       Eu888   2.474       .  S
O872        C895   1.291       .  A
O873       Eu889   2.470       .  S
O873       C1316   1.293       .  A
O874       Eu890   2.521       .  S
O874        C897   1.302       .  A
O875       Eu891   2.517       .  S
O875        C898   1.300       .  A
O876       Eu891   2.514       .  S
O876       C2999   1.300   1_554  A
O877      Eu2570   2.541       .  S
O877        C900   1.304       .  A
O878       Eu892   2.537       .  S
O878        C901   1.304       .  A
O879       C2582   1.305   1_455  A
O880      Eu2570   2.397       .  S
O880       C1321   1.283       .  A
O881       Eu891   2.431       .  S
O881        C902   1.286       .  A
O882      Eu1308   2.445       .  S
O882        C897   1.288       .  A
O883        C900   1.284       .  A
O884       Eu889   2.445       .  S
O884        C899   1.289       .  A
O885       Eu888   2.396       .  S
O886      Eu2572   2.393       .  S
O886        C895   1.282       .  A
O887       Eu892   2.437       .  S
Eu888      O1274   2.484   1_554  S
Eu888      O1302   2.447   1_554  S
Eu888      O1289   2.355   1_554  S
Eu888       O906   2.373       .  S
Eu888      O1314   2.348       .  S
Eu889      O1703   2.350       .  S
Eu889      O2551   2.338   1_455  S
Eu889      O1313   2.359       .  S
Eu890      O2557   2.543       .  S
Eu890      O2560   2.396       .  S
Eu890      O2584   2.343       .  S
Eu890       O894   2.361       .  S
Eu891      O1277   2.422   1_554  S
Eu891      O1282   2.365   1_554  S
Eu891      O1291   2.350   1_554  S
Eu891      O2573   2.370       .  S
Eu892      O2566   2.392   1_455  S
Eu892      O1324   2.343   1_554  S
Eu892      O2586   2.360   1_455  S
Eu892      O2994   2.367   1_455  S
O893      Eu1309   2.360   1_554  S
O893      Eu2571   2.369   1_455  S
O894      Eu1308   2.349       .  S
O894      Eu2992   2.365       .  S
C895       C1122   1.454       .  S
C896       O1293   1.293   1_554  A
C896       C1162   1.482       .  S
C897       C1192   1.494       .  S
C898       C1172   1.474       .  S
C899       O2976   1.299   1_455  A
C899       C1202   1.499       .  S
C900       C1142   1.486       .  S
C901       O1300   1.283   1_554  A
C901       C1212   1.480       .  S
C902       O2559   1.305       .  A
C902       C1225   1.493       .  S
H903        O904   0.964       .  S
O904      Eu2570   2.343       .  S
O904      Eu1312   2.344       .  S
H905        O906   0.965       .  S
O906      Eu2572   2.360       .  S
C907        C908   1.517       .  S
C907        C913   1.531       .  S
C907        C911   1.549       .  S
C907       C1112   1.515       .  S
C908        H915   1.089       .  S
C908        C909   1.353       .  D
C909       C1165   1.468       .  S
C910        C912   1.554       .  S
C910        H916   1.110       .  S
C911        H917   1.079       .  S
C912       C1105   1.498       .  S
C913        H918   1.087       .  S
C913        C914   1.360       .  D
C914       C1175   1.483       .  S
O919       Eu955   2.527       .  S
O919        C930   1.302       .  A
O920       Eu954   2.462       .  S
O920        C931   1.289       .  A
O921       Eu927   2.462       .  S
O921        C932   1.290       .  A
O922       Eu927   2.439       .  S
O922        C933   1.285       .  A
O923       Eu957   2.420       .  S
O923        C933   1.285       .  A
O924       Eu956   2.427       .  S
O924        C932   1.287       .  A
O925       Eu927   2.438       .  S
O925        C931   1.286       .  A
O926       Eu927   2.363       .  S
O926        C930   1.274       .  A
Eu927       O937   2.361       .  S
Eu927       O929   2.352       .  S
Eu927       O928   2.326       .  S
Eu927       O935   2.339       .  S
O928       Eu957   2.355       .  S
O928       Eu954   2.347       .  S
O929       Eu955   2.360       .  S
O929       Eu956   2.343       .  S
C930       C1255   1.459       .  S
C931       C1032   1.464       .  S
C932       C1092   1.465       .  S
C933       C1115   1.441       .  S
H934        O935   0.968       .  S
O935       Eu956   2.359       .  S
O935       Eu954   2.348       .  S
H936        O937   0.965       .  S
O937       Eu955   2.337       .  S
O937       Eu957   2.344       .  S
O938       Eu954   2.453       .  S
O938        C961   1.288       .  A
O939       Eu955   2.522       .  S
O939        C962   1.301       .  A
O940       Eu956   2.504       .  S
O940        C963   1.299       .  A
O941       Eu957   2.516       .  S
O941        C964   1.301       .  A
O942       Eu957   2.526       .  S
O942        C965   1.301       .  A
O943       Eu956   2.537       .  S
O943        C966   1.304       .  A
O944       Eu958   2.532       .  S
O944        C967   1.303       .  A
O945       Eu958   2.549       .  S
O945        C968   1.307       .  A
O946       Eu956   2.396       .  S
O946        C967   1.282       .  A
O947       Eu957   2.423       .  S
O947        C968   1.286       .  A
O948       Eu954   2.450       .  S
O948        C963   1.290       .  A
O949       Eu955   2.401       .  S
O949        C966   1.282       .  A
O950       Eu955   2.432       .  S
O950        C965   1.289       .  A
O951       Eu954   2.396       .  S
O951        C964   1.281       .  A
O952       Eu958   2.397       .  S
O952        C961   1.281       .  A
O953       Eu958   2.423       .  S
O953        C962   1.287       .  A
Eu954       O972   2.356       .  S
Eu954       O960   2.338       .  S
Eu955       O959   2.369       .  S
Eu955       O970   2.347       .  S
Eu956       O970   2.339       .  S
Eu956       O960   2.363       .  S
Eu957       O959   2.370       .  S
Eu957       O972   2.349       .  S
Eu958       O959   2.365       .  S
Eu958       O970   2.352       .  S
Eu958       O972   2.343       .  S
Eu958       O960   2.358       .  S
C961       C1082   1.440       .  S
C962       C1042   1.488       .  S
C963       C1102   1.498       .  S
C964       C1052   1.478       .  S
C965       C1072   1.507       .  S
C966       C1025   1.477       .  S
C967       C1065   1.478       .  S
C968       C1242   1.504       .  S
H969        O970   0.963       .  S
H971        O972   0.963       .  S
C973       C1394   1.538       .  S
C973        C979   1.536       .  S
C973        C977   1.554       .  S
C973       C1205   1.547       .  S
C974       C1393   1.539   1_554  S
C974        H981   1.087       .  S
C974        C975   1.365       .  D
C975       C1396   1.538   1_554  S
C975       C1035   1.485       .  S
C976       C1395   1.536       .  S
C976        C980   1.546       .  S
C976        C978   1.539       .  S
C976        H982   1.105       .  S
C977        H983   1.079       .  S
C977        C978   1.377       .  D
C978       C1215   1.496       .  S
C979        H984   1.086       .  S
C979        C980   1.368       .  D
C980       C1022   1.504       .  S
C985        C986   1.537       .  S
C985        C991   1.542       .  S
C985        C989   1.544       .  S
C985       C1135   1.525       .  S
C986       H2673   1.081       .  S
C986        C987   1.354       .  D
C987        C988   1.522       .  S
C987       C2775   1.467       .  S
C988        C992   1.522       .  S
C988        C990   1.528       .  S
C988        H994   1.110       .  S
C989        H995   1.086       .  S
C989        C990   1.370       .  D
C990       C1125   1.468       .  S
C991        H996   1.086       .  S
C991        C992   1.368       .  D
C992       C1085   1.471       .  S
H993       C2666   1.081       .  S
C997        C998   1.518       .  S
C997       C1003   1.525       .  S
C997       C1001   1.543       .  S
C997       C1185   1.515       .  S
C998       H1005   1.088       .  S
C998        C999   1.357       .  D
C999       C1000   1.557       .  S
C999       C1045   1.484       .  S
C1000      C1004   1.552       .  S
C1000      C1002   1.562       .  S
C1000      H1006   1.109       .  S
C1001      H1007   1.081       .  S
C1001      C1002   1.376       .  D
C1002      C1195   1.510       .  S
C1003      H1428   1.088       .  S
C1003      C1004   1.355       .  D
C1004      C1475   1.480       .  S
H1008      C1423   1.088   1_554  S
C1009      C1010   1.533       .  S
C1009      C1015   1.537       .  S
C1009      C1075   1.543       .  S
C1010      H1017   1.084       .  S
C1011      C1012   1.542   1_545  S
C1011      C1155   1.503   1_545  S
C1012      C1016   1.543       .  S
C1012      C1014   1.545       .  S
C1012      H1018   1.108       .  S
C1013      H1019   1.083       .  S
C1013      C1014   1.382       .  D
C1014      C1062   1.499       .  S
C1015      H1020   1.086       .  S
C1016      C1145   1.500       .  S
C1021      C1022   1.411       .  A
C1021      C1026   1.401       .  A
C1021      H1028   1.082       .  S
C1022      C1023   1.410       .  A
C1023      C1024   1.406       .  A
C1023      F1030   1.356       .  S
C1024      C1025   1.405       .  A
C1024      H1029   1.084       .  S
C1025      C1026   1.405       .  A
C1026      F1027   1.358       .  S
C1031      C1032   1.403       .  A
C1031      C1036   1.399       .  A
C1031      H1038   1.084       .  S
C1032      C1033   1.399       .  A
C1033      C1034   1.398       .  A
C1033      F1040   1.357       .  S
C1034      C1035   1.407       .  A
C1034      H1039   1.082       .  S
C1035      C1036   1.407       .  A
C1036      F1037   1.358       .  S
C1041      C1042   1.400       .  A
C1041      C1046   1.403       .  A
C1041      H1048   1.083       .  S
C1042      C1043   1.416       .  A
C1043      C1044   1.400       .  A
C1043      F1050   1.358       .  S
C1044      C1045   1.397       .  A
C1044      H1049   1.083       .  S
C1045      C1046   1.414       .  A
C1046      F1047   1.358       .  S
C1051      C1052   1.401       .  A
C1051      C1056   1.402       .  A
C1051      H1058   1.083       .  S
C1052      C1053   1.414       .  A
C1053      C1054   1.398       .  A
C1053      F1060   1.359       .  S
C1054      C1055   1.397       .  A
C1054      H1059   1.084       .  S
C1055      C1424   1.482       .  S
C1055      C1056   1.412       .  A
C1056      F1057   1.357       .  S
C1061      C1062   1.404       .  A
C1061      C1066   1.392       .  A
C1061      H1068   1.082       .  S
C1062      C1063   1.414       .  A
C1063      C1064   1.412       .  A
C1063      F1070   1.357       .  S
C1064      C1065   1.407       .  A
C1064      H1069   1.083       .  S
C1065      C1066   1.406       .  A
C1066      F1067   1.359       .  S
C1071      C1072   1.409       .  A
C1071      C1076   1.392       .  A
C1071      H1078   1.083       .  S
C1072      C1073   1.412       .  A
C1073      C1074   1.417       .  A
C1073      F1080   1.356       .  S
C1074      C1075   1.415       .  A
C1074      H1079   1.080       .  S
C1075      C1076   1.411       .  A
C1076      F1077   1.359       .  S
C1081      C1082   1.393       .  A
C1081      C1086   1.387       .  A
C1081      H1088   1.084       .  S
C1082      C1083   1.404       .  A
C1083      C1084   1.394       .  A
C1083      F1090   1.359       .  S
C1084      C1085   1.401       .  A
C1084      H1089   1.084       .  S
C1085      C1086   1.410       .  A
C1086      F1087   1.355       .  S
C1091      C1092   1.405       .  A
C1091      C1096   1.402       .  A
C1091      H1098   1.084       .  S
C1092      C1093   1.404       .  A
C1093      C1094   1.388       .  A
C1093      F1100   1.358       .  S
C1094      C1095   1.399       .  A
C1094      H1099   1.084       .  S
C1095      C2667   1.467       .  S
C1095      C1096   1.403       .  A
C1096      F1097   1.357       .  S
C1101      C1102   1.407       .  A
C1101      C1106   1.408       .  A
C1101      H1108   1.083       .  S
C1102      C1103   1.414       .  A
C1103      C1104   1.400       .  A
C1103      F1110   1.358       .  S
C1104      C1105   1.402       .  A
C1104      H1109   1.083       .  S
C1105      C1106   1.413       .  A
C1106      F1107   1.357       .  S
C1111      C1112   1.416       .  A
C1111      C1116   1.386       .  A
C1111      H1118   1.084       .  S
C1112      C1113   1.408       .  A
C1113      C1114   1.391       .  A
C1113      F1120   1.352       .  S
C1114      C1115   1.400       .  A
C1114      H1119   1.083       .  S
C1115      C1116   1.390       .  A
C1116      F1117   1.358       .  S
C1121      C1122   1.401       .  A
C1121      C1126   1.384       .  A
C1121      H1128   1.084       .  S
C1122      C1123   1.404       .  A
C1123      C1124   1.401       .  A
C1123      F1130   1.358       .  S
C1124      C1125   1.406       .  A
C1124      H1129   1.083       .  S
C1125      C1126   1.401       .  A
C1126      F2807   1.358       .  S
F1127      C2806   1.358   1_455  S
C1131      C1132   1.399       .  A
C1131      C1136   1.399       .  A
C1131      H1138   1.083       .  S
C1132      C1133   1.400       .  A
C1133      C1134   1.386       .  A
C1133      F1140   1.359       .  S
C1134      C1135   1.409       .  A
C1134      H1139   1.076       .  S
C1135      C1136   1.414       .  A
C1136      F1137   1.356       .  S
C1141      C1142   1.404       .  A
C1141      C1146   1.408       .  A
C1141      H1148   1.083       .  S
C1142      C1143   1.411       .  A
C1143      C1144   1.406       .  A
C1143      F1150   1.358       .  S
C1144      C1145   1.404       .  A
C1144      H1149   1.083       .  S
C1145      C1146   1.412       .  A
C1146      F1147   1.357       .  S
C1151      C1152   1.403   1_545  A
C1151      C1156   1.399       .  A
C1151      H1158   1.084       .  S
C1152      C1153   1.401       .  A
C1153      C1154   1.405       .  A
C1153      F1160   1.357       .  S
C1154      C1155   1.412       .  A
C1154      H1159   1.081       .  S
C1155      C1156   1.412   1_565  A
C1156      F1157   1.357       .  S
C1161      C1166   1.397       .  A
C1161      H1168   1.083       .  S
C1162      C1163   1.414       .  A
C1163      C1164   1.397       .  A
C1163      F1170   1.358       .  S
C1164      C1165   1.398       .  A
C1164      H1169   1.084       .  S
C1166      F1167   1.358       .  S
C1171      C1172   1.407       .  A
C1171      C1176   1.390       .  A
C1171      H1178   1.081       .  S
C1172      C1173   1.400       .  A
C1173      C1174   1.404       .  A
C1173      F1180   1.357       .  S
C1174      C1175   1.414       .  A
C1174      H1179   1.083       .  S
C1175      C1176   1.399       .  A
C1176      F1177   1.357       .  S
C1181      C1182   1.390       .  A
C1181      C1186   1.387       .  A
C1181      H1188   1.084       .  S
C1182      C1183   1.402       .  A
C1183      C1184   1.395       .  A
C1183      F1610   1.358       .  S
C1184      C1185   1.407       .  A
C1184      H1609   1.078       .  S
C1185      C1186   1.417       .  A
C1186      F1187   1.358       .  S
H1189      C1604   1.078       .  S
F1190      C1603   1.358       .  S
C1191      C1192   1.402       .  A
C1191      C1196   1.406       .  A
C1191      H1198   1.083       .  S
C1192      C1193   1.412       .  A
C1193      C1194   1.407       .  A
C1193      F1200   1.358       .  S
C1194      C1195   1.407       .  A
C1194      H1199   1.082       .  S
C1195      C1196   1.418       .  A
C1196      F1197   1.356       .  S
C1201      C1202   1.408       .  A
C1201      C1206   1.414       .  A
C1201      H2888   1.083   1_455  S
C1202      C1203   1.409       .  A
C1203      C1204   1.394       .  A
C1203      F1210   1.358       .  S
C1204      C1205   1.408       .  A
C1204      H1209   1.083       .  S
C1205      C1206   1.421       .  A
C1206      F1207   1.353       .  S
H1208      C2881   1.083       .  S
C1211      C1632   1.404       .  A
C1211      C1216   1.393       .  A
C1211      H1218   1.085       .  S
C1212      C1631   1.406   1_554  A
C1212      C1213   1.404       .  A
C1213      C1214   1.408       .  A
C1213      F1220   1.356       .  S
C1214      C1635   1.412       .  A
C1214      H1219   1.082       .  S
C1215      C1634   1.412       .  A
C1215      C1216   1.409       .  A
C1216      F1217   1.357       .  S
C1221      C2902   1.407   1_455  A
C1221      C1226   1.409       .  A
C1221      H1228   1.083       .  S
C1222      C2901   1.407       .  A
C1222      C1223   1.416       .  A
C1223      C1224   1.408       .  A
C1223      F1230   1.357       .  S
C1224      C1225   1.403       .  A
C1224      H1229   1.084       .  S
C1225      C2906   1.412       .  A
C1226      C2905   1.412   1_455  A
C1226      F1227   1.358       .  S
C1231      C2912   1.409   1_455  A
C1231      C1236   1.395       .  A
C1231      H1238   1.079       .  S
C1232      C2911   1.409       .  A
C1232      C1233   1.417       .  A
C1233      C1234   1.388       .  A
C1233      F1240   1.358       .  S
C1234      C1235   1.394       .  A
C1234      H1239   1.084       .  S
C1235      C2916   1.402       .  A
C1236      C2915   1.402       .  A
C1236      F1237   1.358       .  S
C1241      C1242   1.404       .  A
C1241      C1246   1.409       .  A
C1241      H1248   1.083       .  S
C1242      C1243   1.421       .  A
C1243      C1244   1.406       .  A
C1243      F1250   1.358       .  S
C1244      C1245   1.399       .  A
C1244      H1249   1.083       .  S
C1245      C1246   1.416       .  A
C1246      F1247   1.357       .  S
C1251      C1252   1.402       .  A
C1251      C1256   1.396       .  A
C1251      H1258   1.084       .  S
C1252      C1253   1.410       .  A
C1253      C1254   1.398       .  A
C1253      F1260   1.357       .  S
C1254      C1255   1.399       .  A
C1254      H1259   1.084       .  S
C1255      C1256   1.408       .  A
C1256      F1257   1.356       .  S
C1261      C1262   1.533       .  S
C1261      C2947   1.504       .  S
C1261      C1265   1.544       .  S
C1261      C1652   1.517       .  S
C1262      H1269   1.086       .  S
C1262      C1263   1.368       .  D
C1263      C2944   1.564       .  S
C1263      C1665   1.502       .  S
C1264      C2943   1.565       .  S
C1264      C1268   1.548   1_655  S
C1264      C2946   1.567       .  S
C1264      H1270   1.109       .  S
C1265      H1271   1.081       .  S
C1265      C1266   1.377       .  D
C1266      C2944   1.566       .  S
C1266      C1642   1.515       .  S
C1267      C2941   1.504   1_455  S
C1267      H1272   1.091       .  S
C1267      C1268   1.343       .  D
C1268      C1672   1.464       .  S
O1273     Eu1309   2.479       .  S
O1273      C2964   1.292       .  A
O1274      C1285   1.293       .  A
O1275      C1286   1.288       .  A
O1276     Eu1281   2.447       .  S
O1276      C1287   1.287       .  A
O1277      C1287   1.285       .  A
O1278     Eu1310   2.427       .  S
O1278      C1286   1.287       .  A
O1279      C1285   1.287   1_545  A
O1280     Eu1281   2.374       .  S
O1280      C1284   1.277       .  A
Eu1281     O1291   2.350       .  S
Eu1281     O1282   2.333       .  S
O1283     Eu2149   2.350   1_565  S
O1283     Eu1310   2.337       .  S
C1284      O2953   1.292       .  A
C1284      C1655   1.445       .  S
C1285      C1572   1.476       .  S
C1286      C1552   1.460       .  S
C1287      C1602   1.445       .  S
H1288      O1289   0.967       .  S
O1289     Eu1310   2.360       .  S
H1290      O1291   0.965       .  S
O1291     Eu2989   2.339       .  S
O1292     Eu1308   2.476       .  S
O1292      C1315   1.292       .  A
O1293     Eu1309   2.472       .  S
O1294     Eu1310   2.520       .  S
O1294      C1317   1.302       .  A
O1295     Eu1311   2.515       .  S
O1295      C1318   1.300       .  A
O1296     Eu1311   2.507       .  S
O1296      C2579   1.298       .  A
O1297     Eu2990   2.542       .  S
O1297      C1320   1.304       .  A
O1298     Eu1312   2.526       .  S
O1298      C1321   1.302       .  A
O1299      C3002   1.306   1_455  A
O1300     Eu2990   2.395       .  S
O1301     Eu1311   2.432       .  S
O1301      C1322   1.286       .  A
O1302      C1317   1.289       .  A
O1303      C1320   1.283       .  A
O1304     Eu1309   2.437       .  S
O1304      C1319   1.288       .  A
O1305     Eu1308   2.395       .  S
O1306     Eu2992   2.388       .  S
O1306      C1315   1.281       .  A
O1307     Eu1312   2.434       .  S
Eu1308     O1326   2.374       .  S
Eu1309     O2123   2.345       .  S
Eu1309     O2971   2.338   1_455  S
Eu1310     O2977   2.542       .  S
Eu1310     O2980   2.394       .  S
Eu1310     O3004   2.343       .  S
Eu1310     O1314   2.360   1_556  S
Eu1311     O2993   2.370       .  S
Eu1312     O2986   2.390   1_455  S
Eu1312     O3006   2.358   1_455  S
Eu1312     O2574   2.366   1_455  S
O1313     Eu2991   2.369   1_455  S
O1314     Eu2572   2.366       .  S
C1315      C1542   1.454       .  S
C1316      C1582   1.482       .  S
C1317      C1612   1.495       .  S
C1318      C1592   1.466       .  S
C1319      O2556   1.300   1_456  A
C1319      C1622   1.500       .  S
C1320      C1562   1.485       .  S
C1321      C1632   1.476       .  S
C1322      O2979   1.306       .  A
C1322      C1645   1.496       .  S
H1323      O1324   0.964       .  S
O1324     Eu2990   2.343       .  S
H1325      O1326   0.965       .  S
O1326     Eu2992   2.359       .  S
C1327      C1328   1.517       .  S
C1327      C1333   1.530       .  S
C1327      C1331   1.552       .  S
C1327      C1532   1.517       .  S
C1328      H1335   1.088       .  S
C1328      C1329   1.353       .  D
C1329      C1585   1.470       .  S
C1330      C1332   1.554       .  S
C1330      H1336   1.109       .  S
C1331      H1337   1.079       .  S
C1332      C1525   1.499       .  S
C1333      H1338   1.087       .  S
C1333      C1334   1.357       .  D
C1334      C1595   1.476       .  S
O1339     Eu1375   2.531       .  S
O1339      C1350   1.303       .  A
O1340     Eu1374   2.467       .  S
O1340      C1351   1.290       .  A
O1341     Eu1347   2.464       .  S
O1341      C1352   1.291       .  A
O1342     Eu1347   2.452       .  S
O1342      C1353   1.287       .  A
O1343     Eu1377   2.418       .  S
O1343      C1353   1.284       .  A
O1344     Eu1376   2.426       .  S
O1344      C1352   1.287       .  A
O1345     Eu1347   2.431       .  S
O1345      C1351   1.285       .  A
O1346     Eu1347   2.360       .  S
O1346      C1350   1.274       .  A
Eu1347     O1357   2.360       .  S
Eu1347     O1349   2.354       .  S
Eu1347     O1348   2.326       .  S
Eu1347     O1355   2.341       .  S
O1348     Eu1377   2.352       .  S
O1348     Eu1374   2.346       .  S
O1349     Eu1375   2.360       .  S
O1349     Eu1376   2.344       .  S
C1350      C1675   1.459       .  S
C1351      C1452   1.464       .  S
C1352      C1512   1.466       .  S
C1353      C1535   1.446       .  S
H1354      O1355   0.968       .  S
O1355     Eu1376   2.359       .  S
O1355     Eu1374   2.346       .  S
H1356      O1357   0.965       .  S
O1357     Eu1375   2.341       .  S
O1357     Eu1377   2.346       .  S
O1358     Eu1374   2.454       .  S
O1358      C1381   1.288       .  A
O1359     Eu1375   2.528       .  S
O1359      C1382   1.303       .  A
O1360     Eu1376   2.507       .  S
O1360      C1383   1.299       .  A
O1361     Eu1377   2.514       .  S
O1361      C1384   1.301       .  A
O1362     Eu1377   2.518       .  S
O1362      C1385   1.300       .  A
O1363     Eu1376   2.541       .  S
O1363      C1386   1.304       .  A
O1364     Eu1378   2.536       .  S
O1364      C1387   1.304       .  A
O1365     Eu1378   2.550       .  S
O1365      C1388   1.307       .  A
O1366     Eu1376   2.397       .  S
O1366      C1387   1.282       .  A
O1367     Eu1377   2.420       .  S
O1367      C1388   1.285       .  A
O1368     Eu1374   2.445       .  S
O1368      C1383   1.289       .  A
O1369     Eu1375   2.401       .  S
O1369      C1386   1.282       .  A
O1370     Eu1375   2.434       .  S
O1370      C1385   1.289       .  A
O1371     Eu1374   2.395       .  S
O1371      C1384   1.281       .  A
O1372     Eu1378   2.401       .  S
O1372      C1381   1.282       .  A
O1373     Eu1378   2.422       .  S
O1373      C1382   1.287       .  A
Eu1374     O1392   2.355       .  S
Eu1374     O1380   2.342       .  S
Eu1375     O1379   2.367       .  S
Eu1375     O1390   2.348       .  S
Eu1376     O1390   2.338       .  S
Eu1376     O1380   2.364       .  S
Eu1377     O1379   2.369       .  S
Eu1377     O1392   2.347       .  S
Eu1378     O1379   2.364       .  S
Eu1378     O1390   2.353       .  S
Eu1378     O1392   2.345       .  S
Eu1378     O1380   2.359       .  S
C1381      C1502   1.441       .  S
C1382      C1462   1.491       .  S
C1383      C1522   1.498       .  S
C1384      C1472   1.477       .  S
C1385      C1492   1.502       .  S
C1386      C1445   1.479       .  S
C1387      C1485   1.481       .  S
C1388      C1662   1.504       .  S
H1389      O1390   0.964       .  S
H1391      O1392   0.963       .  S
C1393      C1399   1.537       .  S
C1393      C1397   1.554       .  S
C1393      C1625   1.548       .  S
C1394      H1401   1.087       .  S
C1394      C1395   1.364       .  D
C1395      C1455   1.485       .  S
C1396      C1400   1.547       .  S
C1396      C1398   1.539       .  S
C1396      H1402   1.106       .  S
C1397      H1403   1.079   1_556  S
C1397      C1398   1.375       .  D
C1398      C1635   1.496   1_556  S
C1399      H1404   1.086       .  S
C1399      C1400   1.370       .  D
C1400      C1442   1.507       .  S
C1405      C1406   1.537       .  S
C1405      C1411   1.542       .  S
C1405      C1409   1.544       .  S
C1405      C1555   1.524       .  S
C1406      H3093   1.081       .  S
C1406      C1407   1.355       .  D
C1407      C1408   1.522       .  S
C1407      C3195   1.467       .  S
C1408      C1412   1.522       .  S
C1408      C1410   1.528       .  S
C1408      H1414   1.110       .  S
C1409      H1415   1.086       .  S
C1409      C1410   1.370       .  D
C1410      C1545   1.468       .  S
C1411      H1416   1.086       .  S
C1411      C1412   1.369       .  D
C1412      C1505   1.472       .  S
H1413      C3086   1.081       .  S
C1417      C1418   1.517       .  S
C1417      C1423   1.524       .  S
C1417      C1421   1.543       .  S
C1417      C1605   1.514       .  S
C1418      H1425   1.088       .  S
C1418      C1419   1.356       .  D
C1419      C1420   1.557       .  S
C1419      C1465   1.485       .  S
C1420      C1424   1.553   1_556  S
C1420      C1422   1.563       .  S
C1420      H1426   1.109       .  S
C1421      H1427   1.080       .  S
C1421      C1422   1.376       .  D
C1422      C1615   1.512       .  S
C1423      C1424   1.355   1_556  D
C1429      C1430   1.535       .  S
C1429      C1435   1.534       .  S
C1429      C1495   1.542       .  S
C1430      H1437   1.087       .  S
C1431      C1432   1.544   1_545  S
C1431      C1575   1.502   1_545  S
C1432      C1436   1.544       .  S
C1432      C1434   1.546       .  S
C1432      H1438   1.108       .  S
C1433      H1439   1.083       .  S
C1433      C1434   1.382       .  D
C1434      C1482   1.499       .  S
C1435      H1440   1.086       .  S
C1436      C1565   1.501       .  S
C1441      C1442   1.411       .  A
C1441      C1446   1.402       .  A
C1441      H1448   1.082       .  S
C1442      C1443   1.412       .  A
C1443      C1444   1.407       .  A
C1443      F1450   1.356       .  S
C1444      C1445   1.405       .  A
C1444      H1449   1.084       .  S
C1445      C1446   1.406       .  A
C1446      F1447   1.358       .  S
C1451      C1452   1.403       .  A
C1451      C1456   1.398       .  A
C1451      H1458   1.084       .  S
C1452      C1453   1.400       .  A
C1453      C1454   1.398       .  A
C1453      F1460   1.357       .  S
C1454      C1455   1.407       .  A
C1454      H1459   1.082       .  S
C1455      C1456   1.407       .  A
C1456      F1457   1.358       .  S
C1461      C1462   1.401       .  A
C1461      C1466   1.404       .  A
C1461      H1468   1.083       .  S
C1462      C1463   1.417       .  A
C1463      C1464   1.400       .  A
C1463      F1470   1.358       .  S
C1464      C1465   1.397       .  A
C1464      H1469   1.083       .  S
C1465      C1466   1.414       .  A
C1466      F1467   1.357       .  S
C1471      C1472   1.401       .  A
C1471      C1476   1.401       .  A
C1471      H1478   1.083       .  S
C1472      C1473   1.413       .  A
C1473      C1474   1.398       .  A
C1473      F1480   1.359       .  S
C1474      C1475   1.397       .  A
C1474      H1479   1.084       .  S
C1475      C1476   1.411       .  A
C1476      F1477   1.357       .  S
C1481      C1482   1.404       .  A
C1481      C1486   1.393       .  A
C1481      H1488   1.082       .  S
C1482      C1483   1.414       .  A
C1483      C1484   1.412       .  A
C1483      F1490   1.357       .  S
C1484      C1485   1.406       .  A
C1484      H1489   1.083       .  S
C1485      C1486   1.407       .  A
C1486      F1487   1.359       .  S
C1491      C1492   1.407       .  A
C1491      C1496   1.393       .  A
C1491      H1498   1.083       .  S
C1492      C1493   1.411       .  A
C1493      C1494   1.416       .  A
C1493      F1500   1.357       .  S
C1494      C1495   1.415       .  A
C1494      H1499   1.079       .  S
C1495      C1496   1.411       .  A
C1496      F1497   1.359       .  S
C1501      C1502   1.392       .  A
C1501      C1506   1.385       .  A
C1501      H1508   1.084       .  S
C1502      C1503   1.405       .  A
C1503      C1504   1.395       .  A
C1503      F1510   1.359       .  S
C1504      C1505   1.401       .  A
C1504      H1509   1.084       .  S
C1505      C1506   1.410       .  A
C1506      F1507   1.355       .  S
C1511      C1512   1.405       .  A
C1511      C1516   1.401       .  A
C1511      H1518   1.083       .  S
C1512      C1513   1.405       .  A
C1513      C1514   1.388       .  A
C1513      F1520   1.358       .  S
C1514      C1515   1.400       .  A
C1514      H1519   1.084       .  S
C1515      C3087   1.468       .  S
C1515      C1516   1.403       .  A
C1516      F1517   1.357       .  S
C1521      C1522   1.407       .  A
C1521      C1526   1.407       .  A
C1521      H1528   1.083       .  S
C1522      C1523   1.414       .  A
C1523      C1524   1.400       .  A
C1523      F1530   1.358       .  S
C1524      C1525   1.402       .  A
C1524      H1529   1.083       .  S
C1525      C1526   1.413       .  A
C1526      F1527   1.357       .  S
C1531      C1532   1.417       .  A
C1531      C1536   1.388       .  A
C1531      H1538   1.084       .  S
C1532      C1533   1.407       .  A
C1533      C1534   1.393       .  A
C1533      F1540   1.352       .  S
C1534      C1535   1.401       .  A
C1534      H1539   1.082       .  S
C1535      C1536   1.392       .  A
C1536      F1537   1.359       .  S
C1541      C1542   1.401       .  A
C1541      C1546   1.383       .  A
C1541      H1548   1.084       .  S
C1542      C1543   1.404       .  A
C1543      C1544   1.401       .  A
C1543      F1550   1.357       .  S
C1544      C1545   1.406       .  A
C1544      H1549   1.083       .  S
C1545      C1546   1.401       .  A
C1546      F3227   1.358       .  S
F1547      C3226   1.358   1_455  S
C1551      C1552   1.398       .  A
C1551      C1556   1.399       .  A
C1551      H1558   1.083       .  S
C1552      C1553   1.400       .  A
C1553      C1554   1.386       .  A
C1553      F1560   1.359       .  S
C1554      C1555   1.409       .  A
C1554      H1559   1.077       .  S
C1555      C1556   1.415       .  A
C1556      F1557   1.355       .  S
C1561      C1562   1.403       .  A
C1561      C1566   1.407       .  A
C1561      H1568   1.083       .  S
C1562      C1563   1.411       .  A
C1563      C1564   1.407       .  A
C1563      F1570   1.358       .  S
C1564      C1565   1.404       .  A
C1564      H1569   1.083       .  S
C1565      C1566   1.413       .  A
C1566      F1567   1.357       .  S
C1571      C1572   1.402   1_545  A
C1571      C1576   1.398       .  A
C1571      H1578   1.084       .  S
C1572      C1573   1.401       .  A
C1573      C1574   1.404       .  A
C1573      F1580   1.357       .  S
C1574      C1575   1.412       .  A
C1574      H1579   1.081       .  S
C1575      C1576   1.413   1_565  A
C1576      F1577   1.357       .  S
C1581      C1586   1.397       .  A
C1581      H1588   1.083       .  S
C1582      C1583   1.413       .  A
C1583      C1584   1.397       .  A
C1583      F1590   1.358       .  S
C1584      C1585   1.398       .  A
C1584      H1589   1.084       .  S
C1586      F1587   1.358       .  S
C1591      C1592   1.408       .  A
C1591      C1596   1.392       .  A
C1591      H1598   1.084       .  S
C1592      C1593   1.400       .  A
C1593      C1594   1.402       .  A
C1593      F1600   1.357       .  S
C1594      C1595   1.410       .  A
C1594      H1599   1.083       .  S
C1595      C1596   1.399       .  A
C1596      F1597   1.358       .  S
C1601      C1602   1.390       .  A
C1601      C1606   1.386       .  A
C1601      H1608   1.084       .  S
C1602      C1603   1.402       .  A
C1603      C1604   1.395       .  A
C1604      C1605   1.406       .  A
C1605      C1606   1.418       .  A
C1606      F1607   1.359       .  S
C1611      C1612   1.402       .  A
C1611      C1616   1.407       .  A
C1611      H1618   1.083       .  S
C1612      C1613   1.412       .  A
C1613      C1614   1.407       .  A
C1613      F1620   1.357       .  S
C1614      C1615   1.407       .  A
C1614      H1619   1.082       .  S
C1615      C1616   1.419       .  A
C1616      F1617   1.356       .  S
C1621      C1622   1.407   1_554  A
C1621      C1626   1.414       .  A
C1621      H3308   1.083   1_455  S
C1622      C1623   1.410       .  A
C1623      C1624   1.394       .  A
C1623      F1630   1.358       .  S
C1624      C1625   1.408       .  A
C1624      H1629   1.083       .  S
C1625      C1626   1.422   1_556  A
C1626      F1627   1.353       .  S
H1628      C3301   1.083       .  S
C1631      C1636   1.394       .  A
C1631      H1638   1.085       .  S
C1632      C1633   1.403       .  A
C1633      C1634   1.407       .  A
C1633      F1640   1.356       .  S
C1634      H1639   1.082       .  S
C1635      C1636   1.408   1_554  A
C1636      F1637   1.357       .  S
C1641      C3322   1.408   1_455  A
C1641      C1646   1.409       .  A
C1641      H1648   1.082       .  S
C1642      C3321   1.408       .  A
C1642      C1643   1.418       .  A
C1643      C1644   1.410       .  A
C1643      F1650   1.356       .  S
C1644      C1645   1.403       .  A
C1644      H1649   1.083       .  S
C1645      C3326   1.412       .  A
C1646      C3325   1.412   1_455  A
C1646      F1647   1.358       .  S
C1651      C3332   1.409   1_455  A
C1651      C1656   1.396       .  A
C1651      H1658   1.079       .  S
C1652      C3331   1.409       .  A
C1652      C1653   1.418       .  A
C1653      C1654   1.389       .  A
C1653      F1660   1.358       .  S
C1654      C1655   1.394       .  A
C1654      H1659   1.084       .  S
C1655      C3336   1.402       .  A
C1656      C3335   1.401       .  A
C1656      F1657   1.358       .  S
C1661      C1662   1.403       .  A
C1661      C1666   1.408       .  A
C1661      H1668   1.083       .  S
C1662      C1663   1.421       .  A
C1663      C1664   1.406       .  A
C1663      F1670   1.358       .  S
C1664      C1665   1.399       .  A
C1664      H1669   1.083       .  S
C1665      C1666   1.416       .  A
C1666      F1667   1.357       .  S
C1671      C1672   1.403       .  A
C1671      C1676   1.396       .  A
C1671      H1678   1.084       .  S
C1672      C1673   1.408       .  A
C1673      C1674   1.398       .  A
C1673      F1680   1.357       .  S
C1674      C1675   1.400       .  A
C1674      H1679   1.084       .  S
C1675      C1676   1.407       .  A
C1676      F1677   1.356       .  S
C1681      C1682   1.535       .  S
C1681      C1685   1.543       .  S
C1681      C2072   1.518       .  S
C1682      H1689   1.086       .  S
C1682      C1683   1.370       .  D
C1683      C2085   1.500       .  S
C1684      C1688   1.546       .  S
C1684      H1690   1.110       .  S
C1685      H1691   1.082       .  S
C1685      C1686   1.375       .  D
C1686      C2062   1.513       .  S
C1687      H1692   1.091       .  S
C1687      C1688   1.344       .  D
C1688      C2092   1.462       .  S
O1693     Eu1729   2.485       .  S
O1694     Eu2148   2.488       .  S
O1694      C1705   1.294       .  A
O1695     Eu2541   2.457       .  S
O1695      C1706   1.290       .  A
O1696     Eu1701   2.448       .  S
O1696      C1707   1.287       .  A
O1697     Eu2151   2.432       .  S
O1697      C1707   1.286       .  A
O1698     Eu1730   2.429       .  S
O1698      C1706   1.287       .  A
O1699     Eu2541   2.433       .  S
O1699      C1705   1.286       .  A
O1700     Eu1701   2.382       .  S
O1700      C1704   1.278   1_655  A
Eu1701     O2535   2.453   1_545  S
Eu1701     O2539   2.435       .  S
Eu1701     O1711   2.355       .  S
Eu1701     O2543   2.343   1_645  S
Eu1701     O1702   2.328       .  S
Eu1701     O2549   2.347   1_545  S
O1702     Eu2151   2.354       .  S
O1702     Eu2988   2.346   1_545  S
O1703     Eu2541   2.340   1_455  S
O1703     Eu1730   2.337   1_455  S
C1704      C2075   1.447       .  S
C1705      C1992   1.475       .  S
C1706      C1972   1.466       .  S
C1707      C2022   1.449       .  S
H1708      O1709   0.967       .  S
O1709     Eu2541   2.347       .  S
O1709     Eu1730   2.356       .  S
O1709     Eu2148   2.349       .  S
H1710      O1711   0.965       .  S
O1711     Eu2151   2.353       .  S
O1712     Eu1728   2.469       .  S
O1712      C1735   1.290       .  A
O1713     Eu1729   2.477       .  S
O1713      C2156   1.294   1_545  A
O1714     Eu1730   2.517       .  S
O1714      C1737   1.301       .  A
O1715     Eu1731   2.517       .  S
O1715      C1738   1.301       .  A
O1716     Eu1731   2.509       .  S
O1717      C1740   1.301       .  A
O1718     Eu1732   2.519       .  S
O1718      C1741   1.301       .  A
O1719     Eu2572   2.551   1_545  S
O1720      C2161   1.283       .  A
O1721     Eu1731   2.430       .  S
O1721      C1742   1.286       .  A
O1722     Eu2148   2.444       .  S
O1722      C1737   1.288       .  A
O1723     Eu2569   2.418       .  S
O1723      C1740   1.284       .  A
O1724     Eu1729   2.440       .  S
O1724      C1739   1.289       .  A
O1725     Eu1728   2.382       .  S
O1725      C2578   1.280       .  A
O1726      C1735   1.282       .  A
O1727     Eu1732   2.438       .  S
O1727      C2576   1.288       .  A
Eu1728     O2114   2.503   1_554  S
Eu1728     O2142   2.443   1_554  S
Eu1728     O2962   2.353   1_554  S
Eu1728     O2129   2.346   1_554  S
Eu1728     O1746   2.377       .  S
Eu1728     O2154   2.350       .  S
Eu1729     O2563   2.417   1_545  S
Eu1729     O2153   2.361       .  S
Eu1729     O2584   2.338   1_545  S
Eu1730     O1734   2.354       .  S
Eu1731     O2117   2.432   1_554  S
Eu1731     O2122   2.352   1_554  S
Eu1731     O2131   2.350   1_554  S
Eu1731     O2586   2.364   1_545  S
Eu1732     O2559   2.541       .  S
Eu1732     O2573   2.354       .  S
Eu1732     O2164   2.340   1_554  S
O1733     Eu2149   2.361   1_554  S
O1733     Eu2572   2.360   1_545  S
O1734     Eu2148   2.345       .  S
C1735      C1962   1.452       .  S
C1736      O2133   1.294   1_564  A
C1736      O2567   1.289       .  A
C1736      C2002   1.482       .  S
C1737      C2032   1.495       .  S
C1738      O2565   1.281   1_545  A
C1738      C2012   1.474       .  S
C1739      C2042   1.498       .  S
C1740      C1982   1.478       .  S
C1741      O2140   1.283   1_554  A
C1741      C2052   1.473       .  S
C1742      C2065   1.497       .  S
H1743      O1744   0.963       .  S
O1744     Eu2569   2.333       .  S
O1744     Eu2152   2.338       .  S
H1745      O1746   0.965       .  S
O1746     Eu2571   2.356       .  S
C1747      C1748   1.517       .  S
C1747      C1753   1.531       .  S
C1747      C1751   1.548       .  S
C1747      C1952   1.516       .  S
C1748      H1755   1.089       .  S
C1748      C1749   1.352       .  D
C1749      C2590   1.541   1_545  S
C1749      C2005   1.470   1_545  S
C1750      C2589   1.540       .  S
C1750      C2594   1.549       .  S
C1750      C1752   1.546       .  S
C1750      H1756   1.109       .  S
C1751      H1757   1.078       .  S
C1751      C2592   1.374   1_545  D
C1752      C2591   1.373       .  D
C1752      C1945   1.491       .  S
C1753      H1758   1.087       .  S
C1753      C1754   1.359       .  D
C1754      C2590   1.550   1_545  S
C1754      C2015   1.484       .  S
O1759     Eu1795   2.526       .  S
O1759      C1770   1.302       .  A
O1760     Eu1794   2.473       .  S
O1760      C1771   1.291       .  A
O1761     Eu1767   2.464       .  S
O1761      C1772   1.290       .  A
O1762     Eu1767   2.444       .  S
O1762      C1773   1.286       .  A
O1763     Eu1797   2.418       .  S
O1763      C1773   1.285       .  A
O1764     Eu1796   2.433       .  S
O1764      C1772   1.288       .  A
O1765     Eu1767   2.433       .  S
O1765      C1771   1.286       .  A
O1766     Eu1767   2.354       .  S
O1766      C1770   1.273       .  A
Eu1767     O1777   2.363       .  S
Eu1767     O1769   2.352       .  S
Eu1767     O1768   2.325       .  S
Eu1767     O1775   2.339       .  S
O1768     Eu1797   2.356       .  S
O1768     Eu1794   2.351       .  S
O1769     Eu1795   2.360       .  S
O1769     Eu1796   2.340       .  S
C1770      C2095   1.456       .  S
C1771      C1872   1.467       .  S
C1772      C1932   1.467       .  S
C1773      C1955   1.442       .  S
H1774      O1775   0.968       .  S
O1775     Eu1796   2.357       .  S
O1775     Eu1794   2.346       .  S
H1776      O1777   0.965       .  S
O1777     Eu1795   2.337       .  S
O1777     Eu1797   2.346       .  S
O1778     Eu1794   2.466       .  S
O1778      C1801   1.290       .  A
O1779     Eu1795   2.520       .  S
O1779      C1802   1.301       .  A
O1780     Eu1796   2.501       .  S
O1780      C1803   1.298       .  A
O1781     Eu1797   2.523       .  S
O1781      C1804   1.303       .  A
O1782     Eu1797   2.533       .  S
O1782      C1805   1.303       .  A
O1783     Eu1796   2.537       .  S
O1783      C1806   1.304       .  A
O1784     Eu1798   2.522       .  S
O1784      C1807   1.301       .  A
O1785     Eu1798   2.549       .  S
O1785      C1808   1.307       .  A
O1786     Eu1796   2.399       .  S
O1786      C1807   1.283       .  A
O1787     Eu1797   2.416       .  S
O1787      C1808   1.285       .  A
O1788     Eu1794   2.443       .  S
O1788      C1803   1.289       .  A
O1789     Eu1795   2.405       .  S
O1789      C1806   1.282       .  A
O1790     Eu1795   2.442       .  S
O1790      C1805   1.290       .  A
O1791     Eu1794   2.382       .  S
O1791      C1804   1.279       .  A
O1792     Eu1798   2.401       .  S
O1792      C1801   1.282       .  A
O1793     Eu1798   2.418       .  S
O1793      C1802   1.286       .  A
Eu1794     O1812   2.356       .  S
Eu1794     O1800   2.337       .  S
Eu1795     O1799   2.368       .  S
Eu1795     O1810   2.345       .  S
Eu1796     O1810   2.340       .  S
Eu1796     O1800   2.366       .  S
Eu1797     O1799   2.367       .  S
Eu1797     O1812   2.353       .  S
Eu1798     O1799   2.361       .  S
Eu1798     O1810   2.355       .  S
Eu1798     O1812   2.340       .  S
Eu1798     O1800   2.359       .  S
C1801      C1922   1.447       .  S
C1802      C1882   1.487       .  S
C1803      C1942   1.493       .  S
C1804      C1892   1.478       .  S
C1805      C1912   1.512       .  S
C1806      C1865   1.479       .  S
C1807      C1905   1.474       .  S
C1808      C2082   1.503       .  S
H1809      O1810   0.963       .  S
H1811      O1812   0.963       .  S
C1813      C2234   1.538       .  S
C1813      C1819   1.538       .  S
C1813      C1817   1.553       .  S
C1813      C2045   1.547       .  S
C1814      C2233   1.538   1_554  S
C1814      H1821   1.087       .  S
C1814      C1815   1.365       .  D
C1815      C2236   1.538   1_554  S
C1815      C1875   1.489       .  S
C1816      C2235   1.538       .  S
C1816      C1820   1.547       .  S
C1816      C1818   1.539       .  S
C1816      H1822   1.106       .  S
C1817      H1823   1.079       .  S
C1817      C1818   1.376       .  D
C1818      C2055   1.495       .  S
C1819      H1824   1.086       .  S
C1819      C1820   1.368       .  D
C1820      C1862   1.504       .  S
C1825      C1826   1.540   1_655  S
C1825      C1831   1.542       .  S
C1825      C1829   1.548       .  S
C1825      C1975   1.529       .  S
C1826      C1827   1.355       .  D
C1827      C1828   1.523   1_455  S
C1828      C1832   1.523       .  S
C1828      C1830   1.527       .  S
C1828      H1834   1.110       .  S
C1829      H1835   1.086       .  S
C1829      C1830   1.372       .  D
C1830      C1965   1.467       .  S
C1831      H1836   1.086       .  S
C1831      C1832   1.368       .  D
C1832      C1925   1.479       .  S
C1837      C1838   1.518       .  S
C1837      C1843   1.525       .  S
C1837      C1841   1.544       .  S
C1837      C2025   1.516       .  S
C1838      H1845   1.088       .  S
C1838      C1839   1.358       .  D
C1839      C1840   1.555       .  S
C1839      C1885   1.482       .  S
C1840      C1844   1.550       .  S
C1840      C1842   1.563       .  S
C1840      H1846   1.109       .  S
C1841      H1847   1.079       .  S
C1841      C1842   1.376       .  D
C1842      C2035   1.514       .  S
C1843      H2268   1.088       .  S
C1843      C1844   1.354       .  D
C1844      C2315   1.478       .  S
H1848      C2263   1.088   1_554  S
C1849      C1850   1.536       .  S
C1849      C1855   1.541       .  S
C1849      C2693   1.556   1_545  S
C1849      C1915   1.549       .  S
C1850      H1857   1.085       .  S
C1850      C2691   1.368       .  D
C1851      C1852   1.542       .  S
C1851      C2690   1.368       .  D
C1851      C1995   1.502       .  S
C1852      C1856   1.542       .  S
C1852      C1854   1.543       .  S
C1852      H1858   1.108       .  S
C1853      C2689   1.554       .  S
C1853      H1859   1.083       .  S
C1853      C1854   1.381       .  D
C1854      C1902   1.494       .  S
C1855      H1860   1.086       .  S
C1855      C2696   1.364   1_545  D
C1856      C2695   1.363       .  D
C1856      C1985   1.496       .  S
C1861      C1862   1.411       .  A
C1861      C1866   1.404       .  A
C1861      H1868   1.083       .  S
C1862      C1863   1.409       .  A
C1863      C1864   1.405       .  A
C1863      F1870   1.356       .  S
C1864      C1865   1.405       .  A
C1864      H1869   1.084       .  S
C1865      C1866   1.406       .  A
C1866      F1867   1.358       .  S
C1871      C1872   1.403       .  A
C1871      C1876   1.398       .  A
C1871      H1878   1.084       .  S
C1872      C1873   1.401       .  A
C1873      C1874   1.401       .  A
C1873      F1880   1.357       .  S
C1874      C1875   1.408       .  A
C1874      H1879   1.082       .  S
C1875      C1876   1.407       .  A
C1876      F1877   1.357       .  S
C1881      C1882   1.400       .  A
C1881      C1886   1.402       .  A
C1881      H1888   1.083       .  S
C1882      C1883   1.417       .  A
C1883      C1884   1.399       .  A
C1883      F1890   1.358       .  S
C1884      C1885   1.397       .  A
C1884      H1889   1.083       .  S
C1885      C1886   1.413       .  A
C1886      F1887   1.357       .  S
C1891      C1892   1.400       .  A
C1891      C1896   1.400       .  A
C1891      H1898   1.083       .  S
C1892      C1893   1.417       .  A
C1893      C1894   1.397       .  A
C1893      F1900   1.359       .  S
C1894      C1895   1.395       .  A
C1894      H1899   1.084       .  S
C1895      C2264   1.480       .  S
C1895      C1896   1.413       .  A
C1896      F1897   1.357       .  S
C1901      C1902   1.404       .  A
C1901      C1906   1.391       .  A
C1901      H1908   1.082       .  S
C1902      C1903   1.412       .  A
C1903      C1904   1.409       .  A
C1903      F1910   1.357       .  S
C1904      C1905   1.405       .  A
C1904      H1909   1.083       .  S
C1905      C1906   1.405       .  A
C1906      F1907   1.359       .  S
C1911      C1912   1.410       .  A
C1911      C1916   1.396       .  A
C1911      H1918   1.083       .  S
C1912      C1913   1.413       .  A
C1913      C1914   1.419       .  A
C1913      F1920   1.356       .  S
C1914      C1915   1.416       .  A
C1914      H1919   1.080       .  S
C1915      C1916   1.412       .  A
C1916      F1917   1.359       .  S
C1921      C1922   1.394       .  A
C1921      C1926   1.388       .  A
C1921      H1928   1.084       .  S
C1922      C1923   1.404       .  A
C1923      C1924   1.397       .  A
C1923      F1930   1.358       .  S
C1924      C1925   1.403       .  A
C1924      H1929   1.083       .  S
C1925      C1926   1.412       .  A
C1926      F1927   1.354       .  S
C1931      C1932   1.405       .  A
C1931      C1936   1.402       .  A
C1931      H1938   1.084       .  S
C1932      C1933   1.404       .  A
C1933      C1934   1.390       .  A
C1933      F1940   1.358       .  S
C1934      C1935   1.400       .  A
C1934      H1939   1.084       .  S
C1935      C1936   1.404       .  A
C1936      F1937   1.357       .  S
C1941      C1942   1.407       .  A
C1941      C1946   1.407       .  A
C1941      H1948   1.083       .  S
C1942      C1943   1.413       .  A
C1943      C1944   1.398       .  A
C1943      F1950   1.358       .  S
C1944      C1945   1.401       .  A
C1944      H1949   1.083       .  S
C1945      C1946   1.410       .  A
C1946      F1947   1.357       .  S
C1951      C1952   1.417       .  A
C1951      C1956   1.385       .  A
C1951      H1958   1.084       .  S
C1952      C1953   1.408       .  A
C1953      C1954   1.393       .  A
C1953      F1960   1.352       .  S
C1954      C1955   1.401       .  A
C1954      H1959   1.084       .  S
C1955      C1956   1.389       .  A
C1956      F1957   1.358       .  S
C1961      C1962   1.400       .  A
C1961      C1966   1.382       .  A
C1961      H1968   1.084       .  S
C1962      C1963   1.405       .  A
C1963      C1964   1.402       .  A
C1963      F1970   1.358       .  S
C1964      C1965   1.405       .  A
C1964      H1969   1.083       .  S
C1965      C1966   1.401       .  A
C1971      C1972   1.399       .  A
C1971      C1976   1.400       .  A
C1971      H1978   1.083       .  S
C1972      C1973   1.401   1_655  A
C1973      C1974   1.387       .  A
C1973      F1980   1.358       .  S
C1974      C1975   1.409   1_455  A
C1974      H1979   1.075       .  S
C1975      C1976   1.415       .  A
C1976      F1977   1.355       .  S
C1981      C1982   1.401       .  A
C1981      C1986   1.404       .  A
C1981      H1988   1.083       .  S
C1982      C1983   1.410       .  A
C1983      C1984   1.405       .  A
C1983      F1990   1.358       .  S
C1984      C1985   1.403       .  A
C1984      H1989   1.083       .  S
C1985      C1986   1.412       .  A
C1986      F1987   1.357       .  S
C1991      C1992   1.402       .  A
C1991      C1996   1.398       .  A
C1991      H1998   1.084       .  S
C1992      C1993   1.401       .  A
C1993      C1994   1.404       .  A
C1993      F2000   1.357       .  S
C1994      C1995   1.413       .  A
C1994      H1999   1.081       .  S
C1995      C1996   1.412       .  A
C1996      F1997   1.357       .  S
C2001      C2842   1.404       .  A
C2001      C2006   1.396       .  A
C2001      H2008   1.083   1_554  S
C2002      C2841   1.403   1_565  A
C2002      C2003   1.413       .  A
C2003      C2004   1.396       .  A
C2003      F2010   1.357       .  S
C2004      C2005   1.397       .  A
C2004      H2009   1.084       .  S
C2005      C2846   1.409   1_565  A
C2006      C2845   1.407       .  A
C2006      F2007   1.358       .  S
C2011      C2012   1.409       .  A
C2011      C2016   1.394       .  A
C2011      H2018   1.084       .  S
C2012      C2013   1.400       .  A
C2013      C2014   1.403       .  A
C2013      F2020   1.357       .  S
C2014      C2015   1.412       .  A
C2014      H2019   1.083       .  S
C2015      C2016   1.401       .  A
C2016      F2017   1.357   1_545  S
C2021      C2022   1.391       .  A
C2021      C2026   1.387       .  A
C2021      H2028   1.084       .  S
C2022      C2023   1.402       .  A
C2023      C2024   1.396       .  A
C2023      F2450   1.358       .  S
C2024      C2025   1.407       .  A
C2024      H2449   1.078       .  S
C2025      C2026   1.417       .  A
C2026      F2027   1.359       .  S
H2029      C2444   1.078       .  S
F2030      C2443   1.358       .  S
C2031      C2032   1.402       .  A
C2031      C2036   1.407       .  A
C2031      H2038   1.083       .  S
C2032      C2033   1.411       .  A
C2033      C2034   1.406       .  A
C2033      F2040   1.358       .  S
C2034      C2035   1.407       .  A
C2034      H2039   1.081       .  S
C2035      C2036   1.420       .  A
C2036      F2037   1.356       .  S
C2041      C2042   1.407       .  A
C2041      C2046   1.413       .  A
C2042      C2043   1.409       .  A
C2043      C2044   1.394       .  A
C2043      F2050   1.358       .  S
C2044      C2045   1.408       .  A
C2044      H2049   1.083       .  S
C2045      C2046   1.422       .  A
C2046      F2047   1.353       .  S
C2051      C2472   1.404       .  A
C2051      C2056   1.393       .  A
C2051      H2058   1.085       .  S
C2052      C2471   1.404   1_554  A
C2052      C2053   1.402       .  A
C2053      C2054   1.406       .  A
C2053      F2060   1.356       .  S
C2054      C2475   1.412       .  A
C2054      H2059   1.082       .  S
C2055      C2474   1.412       .  A
C2055      C2056   1.409       .  A
C2056      F2057   1.357       .  S
C2061      C2066   1.410       .  A
C2061      H2068   1.083       .  S
C2062      C2063   1.416       .  A
C2063      C2064   1.410       .  A
C2063      F2070   1.357       .  S
C2064      C2065   1.404       .  A
C2064      H2069   1.083       .  S
C2066      F2067   1.358       .  S
C2071      C2076   1.397       .  A
C2071      H2078   1.079       .  S
C2072      C2073   1.417       .  A
C2073      C2074   1.390   1_655  A
C2073      F2080   1.358       .  S
C2074      C2075   1.395       .  A
C2074      H2079   1.084   1_455  S
C2076      F2077   1.358       .  S
C2081      C2082   1.403       .  A
C2081      C2086   1.408       .  A
C2081      H2088   1.083       .  S
C2082      C2083   1.421       .  A
C2083      C2084   1.405       .  A
C2083      F2090   1.358       .  S
C2084      C2085   1.399       .  A
C2084      H2089   1.083       .  S
C2085      C2086   1.415       .  A
C2086      F2087   1.357       .  S
C2091      C2092   1.401       .  A
C2091      C2096   1.395       .  A
C2091      H2098   1.084       .  S
C2092      C2093   1.409       .  A
C2093      C2094   1.397       .  A
C2093      F2100   1.357       .  S
C2094      C2095   1.400       .  A
C2094      H2099   1.084       .  S
C2095      C2096   1.407       .  A
C2096      F2097   1.357       .  S
C2101      C2102   1.535       .  S
C2101      C2105   1.544       .  S
C2101      C2492   1.518       .  S
C2102      H2109   1.086       .  S
C2102      C2103   1.369       .  D
C2103      C2505   1.500       .  S
C2104      C2108   1.546       .  S
C2104      H2110   1.110       .  S
C2105      H2111   1.082       .  S
C2105      C2106   1.375       .  D
C2106      C2482   1.514       .  S
C2107      H2112   1.091       .  S
C2107      C2108   1.344       .  D
C2108      C2512   1.462       .  S
O2113     Eu2149   2.478       .  S
O2114      C2125   1.296       .  A
O2115     Eu2961   2.451       .  S
O2115      C2126   1.288       .  A
O2116     Eu2121   2.444       .  S
O2116      C2127   1.287       .  A
O2117      C2127   1.286       .  A
O2118     Eu2150   2.433       .  S
O2118      C2126   1.288       .  A
O2119     Eu2961   2.412       .  S
O2119      C2125   1.283       .  A
O2120     Eu2121   2.386       .  S
O2120      C2124   1.279   1_655  A
Eu2121     O2955   2.453   1_545  S
Eu2121     O2959   2.438       .  S
Eu2121     O2131   2.355       .  S
Eu2121     O2963   2.344   1_645  S
Eu2121     O2122   2.328       .  S
Eu2121     O2969   2.347   1_545  S
O2122     Eu2568   2.346   1_546  S
O2123     Eu2961   2.335   1_455  S
O2123     Eu2150   2.337   1_455  S
C2124      C2495   1.448       .  S
C2125      C2412   1.483       .  S
C2126      C2392   1.464       .  S
C2127      C2442   1.447       .  S
H2128      O2129   0.967       .  S
O2129     Eu2961   2.343       .  S
O2129     Eu2150   2.351       .  S
H2130      O2131   0.965       .  S
O2132     Eu2148   2.465       .  S
O2132      C2155   1.290       .  A
O2133     Eu2149   2.474       .  S
O2134     Eu2150   2.518       .  S
O2134      C2157   1.301       .  A
O2135     Eu2151   2.519       .  S
O2135      C2158   1.301       .  A
O2136     Eu2151   2.506       .  S
O2137      C2160   1.301       .  A
O2138     Eu2152   2.522       .  S
O2138      C2161   1.301       .  A
O2139     Eu2992   2.546   1_545  S
O2141     Eu2151   2.435       .  S
O2141      C2162   1.287       .  A
O2142      C2157   1.288       .  A
O2143     Eu2989   2.415       .  S
O2143      C2160   1.284       .  A
O2144     Eu2149   2.436       .  S
O2144      C2159   1.288       .  A
O2145     Eu2148   2.383       .  S
O2145      C2998   1.279       .  A
O2146      C2155   1.282       .  A
O2147     Eu2152   2.440       .  S
O2147      C2996   1.289       .  A
Eu2148     O2542   2.348       .  S
Eu2148     O2166   2.376       .  S
Eu2149     O2983   2.415   1_545  S
Eu2149     O3004   2.336   1_545  S
Eu2150     O2154   2.357   1_556  S
Eu2151     O3006   2.362   1_545  S
Eu2152     O2979   2.546       .  S
Eu2152     O2993   2.355       .  S
O2153     Eu2992   2.357   1_545  S
C2155      C2382   1.450       .  S
C2156      O2987   1.288       .  A
C2156      C2422   1.482       .  S
C2157      C2452   1.494       .  S
C2158      O2985   1.281   1_545  A
C2158      C2432   1.473       .  S
C2159      C2462   1.499       .  S
C2160      C2402   1.475       .  S
C2161      C2472   1.475       .  S
C2162      C2485   1.497       .  S
H2163      O2164   0.963       .  S
O2164     Eu2989   2.336       .  S
H2165      O2166   0.965       .  S
O2166     Eu2991   2.359       .  S
C2167      C2168   1.516       .  S
C2167      C2173   1.531       .  S
C2167      C2171   1.547       .  S
C2167      C2372   1.515       .  S
C2168      H2175   1.089       .  S
C2168      C2169   1.351       .  D
C2169      C3010   1.541   1_545  S
C2169      C2425   1.469   1_545  S
C2170      C3009   1.540       .  S
C2170      C3014   1.546       .  S
C2170      C2172   1.549       .  S
C2170      H2176   1.110       .  S
C2171      H2177   1.078       .  S
C2171      C3012   1.375   1_545  D
C2172      C3011   1.376       .  D
C2172      C2365   1.495       .  S
C2173      H2178   1.087       .  S
C2173      C2174   1.359       .  D
C2174      C3010   1.550   1_545  S
C2174      C2435   1.484       .  S
O2179     Eu2215   2.529       .  S
O2179      C2190   1.302       .  A
O2180     Eu2214   2.469       .  S
O2180      C2191   1.290       .  A
O2181     Eu2187   2.458       .  S
O2181      C2192   1.289       .  A
O2182     Eu2187   2.442       .  S
O2182      C2193   1.286       .  A
O2183     Eu2217   2.418       .  S
O2183      C2193   1.285       .  A
O2184     Eu2216   2.434       .  S
O2184      C2192   1.288       .  A
O2185     Eu2187   2.437       .  S
O2185      C2191   1.286       .  A
O2186     Eu2187   2.353       .  S
O2186      C2190   1.273       .  A
Eu2187     O2197   2.364       .  S
Eu2187     O2189   2.354       .  S
Eu2187     O2188   2.323       .  S
Eu2187     O2195   2.337       .  S
O2188     Eu2217   2.354       .  S
O2188     Eu2214   2.353       .  S
O2189     Eu2215   2.363       .  S
O2189     Eu2216   2.339       .  S
C2190      C2515   1.457       .  S
C2191      C2292   1.467       .  S
C2192      C2352   1.466       .  S
C2193      C2375   1.441       .  S
H2194      O2195   0.968       .  S
O2195     Eu2216   2.356       .  S
O2195     Eu2214   2.345       .  S
H2196      O2197   0.965       .  S
O2197     Eu2215   2.338       .  S
O2197     Eu2217   2.345       .  S
O2198     Eu2214   2.466       .  S
O2198      C2221   1.290       .  A
O2199     Eu2215   2.525       .  S
O2199      C2222   1.302       .  A
O2200     Eu2216   2.502       .  S
O2200      C2223   1.298       .  A
O2201     Eu2217   2.520       .  S
O2201      C2224   1.302       .  A
O2202     Eu2217   2.528       .  S
O2202      C2225   1.302       .  A
O2203     Eu2216   2.537       .  S
O2203      C2226   1.304       .  A
O2204     Eu2218   2.522       .  S
O2204      C2227   1.301       .  A
O2205     Eu2218   2.553       .  S
O2205      C2228   1.308       .  A
O2206     Eu2216   2.398       .  S
O2206      C2227   1.283       .  A
O2207     Eu2217   2.411       .  S
O2207      C2228   1.284       .  A
O2208     Eu2214   2.448       .  S
O2208      C2223   1.290       .  A
O2209     Eu2215   2.407       .  S
O2209      C2226   1.283       .  A
O2210     Eu2215   2.449       .  S
O2210      C2225   1.291       .  A
O2211     Eu2214   2.385       .  S
O2211      C2224   1.280       .  A
O2212     Eu2218   2.399       .  S
O2212      C2221   1.281       .  A
O2213     Eu2218   2.416       .  S
O2213      C2222   1.286       .  A
Eu2214     O2232   2.356       .  S
Eu2214     O2220   2.336       .  S
Eu2215     O2219   2.366       .  S
Eu2215     O2230   2.346       .  S
Eu2216     O2230   2.342       .  S
Eu2216     O2220   2.366       .  S
Eu2217     O2219   2.366       .  S
Eu2217     O2232   2.355       .  S
Eu2218     O2219   2.359       .  S
Eu2218     O2230   2.356       .  S
Eu2218     O2232   2.340       .  S
Eu2218     O2220   2.360       .  S
C2221      C2342   1.447       .  S
C2222      C2302   1.487       .  S
C2223      C2362   1.496       .  S
C2224      C2312   1.476       .  S
C2225      C2332   1.512       .  S
C2226      C2285   1.479       .  S
C2227      C2325   1.473       .  S
C2228      C2502   1.503       .  S
H2229      O2230   0.964       .  S
H2231      O2232   0.963       .  S
C2233      C2239   1.537       .  S
C2233      C2237   1.554       .  S
C2233      C2465   1.547       .  S
C2234      H2241   1.087       .  S
C2234      C2235   1.365       .  D
C2235      C2295   1.487       .  S
C2236      C2240   1.547       .  S
C2236      C2238   1.539       .  S
C2236      H2242   1.106       .  S
C2237      H2243   1.079   1_556  S
C2237      C2238   1.376       .  D
C2238      C2475   1.495   1_556  S
C2239      H2244   1.086       .  S
C2239      C2240   1.367       .  D
C2240      C2282   1.503       .  S
C2245      C2246   1.537   1_655  S
C2245      C2251   1.542       .  S
C2245      C2249   1.547       .  S
C2245      C2395   1.528       .  S
C2246      C2247   1.355       .  D
C2247      C2248   1.523   1_455  S
C2248      C2252   1.524       .  S
C2248      C2250   1.526       .  S
C2248      H2254   1.110       .  S
C2249      H2255   1.086       .  S
C2249      C2250   1.372       .  D
C2250      C2385   1.467       .  S
C2251      H2256   1.086       .  S
C2251      C2252   1.369       .  D
C2252      C2345   1.480       .  S
C2257      C2258   1.518       .  S
C2257      C2263   1.524       .  S
C2257      C2261   1.542       .  S
C2257      C2445   1.515       .  S
C2258      H2265   1.088       .  S
C2258      C2259   1.357       .  D
C2259      C2260   1.556       .  S
C2259      C2305   1.484       .  S
C2260      C2264   1.551   1_556  S
C2260      C2262   1.564       .  S
C2260      H2266   1.109       .  S
C2261      H2267   1.079       .  S
C2261      C2262   1.377       .  D
C2262      C2455   1.513       .  S
C2263      C2264   1.354   1_556  D
C2269      C2270   1.534       .  S
C2269      C2275   1.540       .  S
C2269      C3113   1.557   1_545  S
C2269      C2335   1.549       .  S
C2270      H2277   1.085       .  S
C2270      C3111   1.368       .  D
C2271      C2272   1.534       .  S
C2271      C3110   1.364       .  D
C2271      C2415   1.482       .  S
C2272      C2276   1.543       .  S
C2272      C2274   1.540       .  S
C2272      H2278   1.109       .  S
C2273      C3109   1.558       .  S
C2273      H2279   1.082       .  S
C2273      C2274   1.381       .  D
C2274      C2322   1.494       .  S
C2275      H2280   1.086       .  S
C2275      C3116   1.365   1_545  D
C2276      C3115   1.364       .  D
C2276      C2405   1.496       .  S
C2281      C2282   1.411       .  A
C2281      C2286   1.404       .  A
C2281      H2288   1.083       .  S
C2282      C2283   1.408       .  A
C2283      C2284   1.405       .  A
C2283      F2290   1.356       .  S
C2284      C2285   1.406       .  A
C2284      H2289   1.084       .  S
C2285      C2286   1.406       .  A
C2286      F2287   1.358       .  S
C2291      C2292   1.403       .  A
C2291      C2296   1.398       .  A
C2291      H2298   1.084       .  S
C2292      C2293   1.401       .  A
C2293      C2294   1.400       .  A
C2293      F2300   1.357       .  S
C2294      C2295   1.408       .  A
C2294      H2299   1.082       .  S
C2295      C2296   1.407       .  A
C2296      F2297   1.358       .  S
C2301      C2302   1.400       .  A
C2301      C2306   1.403       .  A
C2301      H2308   1.083       .  S
C2302      C2303   1.417       .  A
C2303      C2304   1.400       .  A
C2303      F2310   1.359       .  S
C2304      C2305   1.397       .  A
C2304      H2309   1.083       .  S
C2305      C2306   1.414       .  A
C2306      F2307   1.357       .  S
C2311      C2312   1.400       .  A
C2311      C2316   1.401       .  A
C2311      H2318   1.083       .  S
C2312      C2313   1.415       .  A
C2313      C2314   1.396       .  A
C2313      F2320   1.359       .  S
C2314      C2315   1.395       .  A
C2314      H2319   1.084       .  S
C2315      C2316   1.412       .  A
C2316      F2317   1.357       .  S
C2321      C2322   1.405       .  A
C2321      C2326   1.391       .  A
C2321      H2328   1.082       .  S
C2322      C2323   1.412       .  A
C2323      C2324   1.409       .  A
C2323      F2330   1.356       .  S
C2324      C2325   1.405       .  A
C2324      H2329   1.083       .  S
C2325      C2326   1.405       .  A
C2326      F2327   1.359       .  S
C2331      C2332   1.409       .  A
C2331      C2336   1.396       .  A
C2331      H2338   1.083       .  S
C2332      C2333   1.414       .  A
C2333      C2334   1.419       .  A
C2333      F2340   1.356       .  S
C2334      C2335   1.415       .  A
C2334      H2339   1.080       .  S
C2335      C2336   1.413       .  A
C2336      F2337   1.359       .  S
C2341      C2342   1.394       .  A
C2341      C2346   1.388       .  A
C2341      H2348   1.084       .  S
C2342      C2343   1.404       .  A
C2343      C2344   1.397       .  A
C2343      F2350   1.358       .  S
C2344      C2345   1.404       .  A
C2344      H2349   1.083       .  S
C2345      C2346   1.412       .  A
C2346      F2347   1.354       .  S
C2351      C2352   1.405       .  A
C2351      C2356   1.402       .  A
C2351      H2358   1.083       .  S
C2352      C2353   1.404       .  A
C2353      C2354   1.388       .  A
C2353      F2360   1.358       .  S
C2354      C2355   1.401       .  A
C2354      H2359   1.084       .  S
C2355      C2356   1.403       .  A
C2356      F2357   1.357       .  S
C2361      C2362   1.408       .  A
C2361      C2366   1.408       .  A
C2361      H2368   1.083       .  S
C2362      C2363   1.413       .  A
C2363      C2364   1.399       .  A
C2363      F2370   1.358       .  S
C2364      C2365   1.402       .  A
C2364      H2369   1.083       .  S
C2365      C2366   1.411       .  A
C2366      F2367   1.357       .  S
C2371      C2372   1.416       .  A
C2371      C2376   1.384       .  A
C2371      H2378   1.084       .  S
C2372      C2373   1.408       .  A
C2373      C2374   1.394       .  A
C2373      F2380   1.352       .  S
C2374      C2375   1.402       .  A
C2374      H2379   1.084       .  S
C2375      C2376   1.389       .  A
C2376      F2377   1.358       .  S
C2381      C2382   1.400       .  A
C2381      C2386   1.383       .  A
C2381      H2388   1.084       .  S
C2382      C2383   1.404       .  A
C2383      C2384   1.400       .  A
C2383      F2390   1.358       .  S
C2384      C2385   1.405       .  A
C2384      H2389   1.083       .  S
C2385      C2386   1.402       .  A
C2391      C2392   1.399       .  A
C2391      C2396   1.399       .  A
C2391      H2398   1.083       .  S
C2392      C2393   1.400   1_655  A
C2393      C2394   1.388       .  A
C2393      F2400   1.358       .  S
C2394      C2395   1.410   1_455  A
C2394      H2399   1.075       .  S
C2395      C2396   1.414       .  A
C2396      F2397   1.355       .  S
C2401      C2402   1.401       .  A
C2401      C2406   1.402       .  A
C2401      H2408   1.083       .  S
C2402      C2403   1.408       .  A
C2403      C2404   1.405       .  A
C2403      F2410   1.358       .  S
C2404      C2405   1.404       .  A
C2404      H2409   1.083       .  S
C2405      C2406   1.413       .  A
C2406      F2407   1.357       .  S
C2411      C2412   1.407       .  A
C2411      C2416   1.407       .  A
C2411      H2418   1.080       .  S
C2412      C2413   1.410       .  A
C2413      C2414   1.391       .  A
C2413      F2420   1.359       .  S
C2414      C2415   1.401       .  A
C2414      H2419   1.084       .  S
C2415      C2416   1.404       .  A
C2416      F2417   1.357       .  S
C2421      C3262   1.404       .  A
C2421      C2426   1.397       .  A
C2421      H2428   1.083       .  S
C2422      C3261   1.403   1_565  A
C2422      C2423   1.414       .  A
C2423      C2424   1.396       .  A
C2423      F2430   1.358       .  S
C2424      C2425   1.397       .  A
C2424      H2429   1.084       .  S
C2425      C3266   1.409   1_565  A
C2426      C3265   1.408       .  A
C2426      F2427   1.358       .  S
C2431      C2432   1.409       .  A
C2431      C2436   1.394       .  A
C2431      H2438   1.084       .  S
C2432      C2433   1.400       .  A
C2433      C2434   1.403       .  A
C2433      F2440   1.357       .  S
C2434      C2435   1.413       .  A
C2434      H2439   1.083       .  S
C2435      C2436   1.401       .  A
C2436      F2437   1.357   1_545  S
C2441      C2442   1.390       .  A
C2441      C2446   1.385       .  A
C2441      H2448   1.084       .  S
C2442      C2443   1.402       .  A
C2443      C2444   1.396       .  A
C2444      C2445   1.407       .  A
C2445      C2446   1.417       .  A
C2446      F2447   1.359       .  S
C2451      C2452   1.402       .  A
C2451      C2456   1.407       .  A
C2451      H2458   1.083       .  S
C2452      C2453   1.411       .  A
C2453      C2454   1.406       .  A
C2453      F2460   1.358       .  S
C2454      C2455   1.407       .  A
C2454      H2459   1.081       .  S
C2455      C2456   1.420       .  A
C2456      F2457   1.356       .  S
C2461      C2462   1.407   1_554  A
C2461      C2466   1.413       .  A
C2462      C2463   1.410       .  A
C2463      C2464   1.393       .  A
C2463      F2470   1.358       .  S
C2464      C2465   1.408       .  A
C2464      H2469   1.084       .  S
C2465      C2466   1.421   1_556  A
C2466      F2467   1.352       .  S
C2471      C2476   1.392       .  A
C2471      H2478   1.085       .  S
C2472      C2473   1.402       .  A
C2473      C2474   1.407       .  A
C2473      F2480   1.356       .  S
C2474      H2479   1.082       .  S
C2475      C2476   1.409   1_554  A
C2476      F2477   1.357       .  S
C2481      C2486   1.410       .  A
C2481      H2488   1.083       .  S
C2482      C2483   1.417       .  A
C2483      C2484   1.409       .  A
C2483      F2490   1.357       .  S
C2484      C2485   1.403       .  A
C2484      H2489   1.083       .  S
C2486      F2487   1.358       .  S
C2491      C2496   1.397       .  A
C2491      H2498   1.079       .  S
C2492      C2493   1.417       .  A
C2493      C2494   1.390   1_655  A
C2493      F2500   1.358       .  S
C2494      C2495   1.396       .  A
C2494      H2499   1.084   1_455  S
C2496      F2497   1.358       .  S
C2501      C2502   1.403       .  A
C2501      C2506   1.408       .  A
C2501      H2508   1.083       .  S
C2502      C2503   1.422       .  A
C2503      C2504   1.406       .  A
C2503      F2510   1.358       .  S
C2504      C2505   1.399       .  A
C2504      H2509   1.083       .  S
C2505      C2506   1.415       .  A
C2506      F2507   1.357       .  S
C2511      C2512   1.400       .  A
C2511      C2516   1.394       .  A
C2511      H2518   1.084       .  S
C2512      C2513   1.410       .  A
C2513      C2514   1.398       .  A
C2513      F2520   1.357       .  S
C2514      C2515   1.399       .  A
C2514      H2519   1.084       .  S
C2515      C2516   1.408       .  A
C2516      F2517   1.357       .  S
C2521      C2522   1.533       .  S
C2521      C2525   1.543       .  S
C2521      C2912   1.514       .  S
C2522      H2529   1.086       .  S
C2522      C2523   1.368       .  D
C2523      C2925   1.502       .  S
C2524      C2528   1.546       .  S
C2524      H2530   1.110       .  S
C2525      H2531   1.082       .  S
C2525      C2526   1.376       .  D
C2526      C2902   1.511       .  S
C2527      H2532   1.091       .  S
C2527      C2528   1.342       .  D
C2528      C2932   1.462       .  S
O2533     Eu2569   2.471       .  S
O2534     Eu2988   2.490       .  S
O2534      C2545   1.294       .  A
O2535      C2546   1.289       .  A
O2536     Eu2541   2.449       .  S
O2536      C2547   1.288       .  A
O2537     Eu2991   2.424       .  S
O2537      C2547   1.285       .  A
O2538     Eu2570   2.431   1_655  S
O2538      C2546   1.288       .  A
O2539      C2545   1.286   1_545  A
O2540     Eu2541   2.377       .  S
O2540      C2544   1.278   1_655  A
Eu2541     O2551   2.355       .  S
Eu2541     O2542   2.328       .  S
O2542     Eu2991   2.358       .  S
O2543     Eu2570   2.336       .  S
C2544      C2915   1.442       .  S
C2545      C2832   1.477       .  S
C2546      C2812   1.464       .  S
C2547      C2862   1.446       .  S
H2548      O2549   0.967       .  S
O2549     Eu2570   2.361   1_655  S
O2549     Eu2988   2.355       .  S
H2550      O2551   0.965       .  S
O2551     Eu2991   2.350       .  S
O2552     Eu2568   2.474       .  S
O2552      C2575   1.291       .  A
O2553     Eu2569   2.471       .  S
O2553      C2996   1.293       .  A
O2554     Eu2570   2.518   1_655  S
O2554      C2577   1.301       .  A
O2555     Eu2571   2.519       .  S
O2555      C2578   1.301       .  A
O2556     Eu2571   2.516       .  S
O2557      C2580   1.305       .  A
O2558     Eu2572   2.535       .  S
O2558      C2581   1.303       .  A
O2560      C3001   1.283       .  A
O2561     Eu2571   2.432       .  S
O2561      C2582   1.286       .  A
O2562     Eu2988   2.442       .  S
O2562      C2577   1.288       .  A
O2563      C2580   1.284       .  A
O2564     Eu2569   2.442       .  S
O2564      C2579   1.289       .  A
O2565     Eu2568   2.396       .  S
O2566      C2575   1.282       .  A
O2567     Eu2572   2.439       .  S
Eu2568     O2954   2.483   1_554  S
Eu2568     O2982   2.445   1_554  S
Eu2568     O2969   2.355   1_554  S
Eu2568     O2586   2.373       .  S
Eu2568     O2994   2.347       .  S
Eu2569     O2993   2.359       .  S
Eu2570     O2574   2.361   1_455  S
Eu2571     O2957   2.421   1_554  S
Eu2571     O2962   2.366   1_554  S
Eu2571     O2971   2.350   1_554  S
Eu2572     O3004   2.343   1_554  S
O2573     Eu2989   2.359   1_554  S
O2574     Eu2988   2.347       .  S
C2575      C2802   1.454       .  S
C2576      O2973   1.293   1_554  A
C2576      C2842   1.483       .  S
C2577      C2872   1.491       .  S
C2578      C2852   1.473       .  S
C2579      C2882   1.498       .  S
C2580      C2822   1.486       .  S
C2581      O2980   1.283   1_554  A
C2581      C2892   1.480       .  S
C2582      C2905   1.494       .  S
H2583      O2584   0.964       .  S
O2584     Eu2992   2.343       .  S
H2585      O2586   0.965       .  S
C2587      C2588   1.516       .  S
C2587      C2593   1.531       .  S
C2587      C2591   1.550       .  S
C2587      C2792   1.515       .  S
C2588      H2595   1.089       .  S
C2588      C2589   1.353       .  D
C2589      C2845   1.469       .  S
C2590      C2592   1.554       .  S
C2590      H2596   1.110       .  S
C2591      H2597   1.079       .  S
C2592      C2785   1.499       .  S
C2593      H2598   1.087       .  S
C2593      C2594   1.359       .  D
C2594      C2855   1.482       .  S
O2599     Eu2635   2.531       .  S
O2599      C2610   1.302       .  A
O2600     Eu2634   2.461       .  S
O2600      C2611   1.289       .  A
O2601     Eu2607   2.463       .  S
O2601      C2612   1.290       .  A
O2602     Eu2607   2.444       .  S
O2602      C2613   1.286       .  A
O2603     Eu2637   2.418       .  S
O2603      C2613   1.285       .  A
O2604     Eu2636   2.427       .  S
O2604      C2612   1.287       .  A
O2605     Eu2607   2.437       .  S
O2605      C2611   1.286       .  A
O2606     Eu2607   2.361       .  S
O2606      C2610   1.274       .  A
Eu2607     O2617   2.362       .  S
Eu2607     O2609   2.353       .  S
Eu2607     O2608   2.324       .  S
Eu2607     O2615   2.340       .  S
O2608     Eu2637   2.354       .  S
O2608     Eu2634   2.347       .  S
O2609     Eu2635   2.360       .  S
O2609     Eu2636   2.343       .  S
C2610      C2935   1.459       .  S
C2611      C2712   1.464       .  S
C2612      C2772   1.465       .  S
C2613      C2795   1.442       .  S
H2614      O2615   0.968       .  S
O2615     Eu2636   2.359       .  S
O2615     Eu2634   2.348       .  S
H2616      O2617   0.965       .  S
O2617     Eu2635   2.340       .  S
O2617     Eu2637   2.345       .  S
O2618     Eu2634   2.454       .  S
O2618      C2641   1.288       .  A
O2619     Eu2635   2.527       .  S
O2619      C2642   1.302       .  A
O2620     Eu2636   2.506       .  S
O2620      C2643   1.299       .  A
O2621     Eu2637   2.516       .  S
O2621      C2644   1.301       .  A
O2622     Eu2637   2.526       .  S
O2622      C2645   1.302       .  A
O2623     Eu2636   2.537       .  S
O2623      C2646   1.304       .  A
O2624     Eu2638   2.529       .  S
O2624      C2647   1.302       .  A
O2625     Eu2638   2.548       .  S
O2625      C2648   1.307       .  A
O2626     Eu2636   2.396       .  S
O2626      C2647   1.282       .  A
O2627     Eu2637   2.424       .  S
O2627      C2648   1.286       .  A
O2628     Eu2634   2.450       .  S
O2628      C2643   1.290       .  A
O2629     Eu2635   2.401       .  S
O2629      C2646   1.282       .  A
O2630     Eu2635   2.433       .  S
O2630      C2645   1.289       .  A
O2631     Eu2634   2.395       .  S
O2631      C2644   1.281       .  A
O2632     Eu2638   2.398       .  S
O2632      C2641   1.282       .  A
O2633     Eu2638   2.422       .  S
O2633      C2642   1.287       .  A
Eu2634     O2652   2.356       .  S
Eu2634     O2640   2.337       .  S
Eu2635     O2639   2.369       .  S
Eu2635     O2650   2.347       .  S
Eu2636     O2650   2.339       .  S
Eu2636     O2640   2.363       .  S
Eu2637     O2639   2.370       .  S
Eu2637     O2652   2.349       .  S
Eu2638     O2639   2.365       .  S
Eu2638     O2650   2.353       .  S
Eu2638     O2652   2.341       .  S
Eu2638     O2640   2.359       .  S
C2641      C2762   1.441       .  S
C2642      C2722   1.490       .  S
C2643      C2782   1.499       .  S
C2644      C2732   1.478       .  S
C2645      C2752   1.507       .  S
C2646      C2705   1.477       .  S
C2647      C2745   1.477       .  S
C2648      C2922   1.505       .  S
H2649      O2650   0.963       .  S
H2651      O2652   0.963       .  S
C2653      C3074   1.538       .  S
C2653      C2659   1.536       .  S
C2653      C2657   1.554       .  S
C2653      C2885   1.546       .  S
C2654      C3073   1.539   1_554  S
C2654      H2661   1.087       .  S
C2654      C2655   1.365       .  D
C2655      C3076   1.538   1_554  S
C2655      C2715   1.485       .  S
C2656      C3075   1.537       .  S
C2656      C2660   1.546       .  S
C2656      C2658   1.539       .  S
C2656      H2662   1.106       .  S
C2657      H2663   1.079       .  S
C2657      C2658   1.376       .  D
C2658      C2895   1.496       .  S
C2659      H2664   1.086       .  S
C2659      C2660   1.368       .  D
C2660      C2702   1.504       .  S
C2665      C2666   1.537   1_655  S
C2665      C2671   1.542       .  S
C2665      C2669   1.545       .  S
C2665      C2815   1.526       .  S
C2666      C2667   1.354       .  D
C2667      C2668   1.522   1_455  S
C2668      C2672   1.522       .  S
C2668      C2670   1.528       .  S
C2668      H2674   1.110       .  S
C2669      H2675   1.086       .  S
C2669      C2670   1.370       .  D
C2670      C2805   1.468       .  S
C2671      H2676   1.086       .  S
C2671      C2672   1.369       .  D
C2672      C2765   1.472       .  S
C2677      C2678   1.518       .  S
C2677      C2683   1.525       .  S
C2677      C2681   1.542       .  S
C2677      C2865   1.514       .  S
C2678      H2685   1.088       .  S
C2678      C2679   1.356       .  D
C2679      C2680   1.558       .  S
C2679      C2725   1.485       .  S
C2680      C2684   1.552       .  S
C2680      C2682   1.562       .  S
C2680      H2686   1.109       .  S
C2681      H2687   1.081       .  S
C2681      C2682   1.376       .  D
C2682      C2875   1.508       .  S
C2683      H3108   1.088       .  S
C2683      C2684   1.355       .  D
C2684      C3155   1.480       .  S
H2688      C3103   1.088   1_554  S
C2689      C2690   1.535       .  S
C2689      C2695   1.538       .  S
C2689      C2755   1.544       .  S
C2690      H2697   1.084       .  S
C2691      C2692   1.541   1_545  S
C2691      C2835   1.502   1_545  S
C2692      C2696   1.542       .  S
C2692      C2694   1.545       .  S
C2692      H2698   1.108       .  S
C2693      H2699   1.083       .  S
C2693      C2694   1.382       .  D
C2694      C2742   1.499       .  S
C2695      H2700   1.086       .  S
C2696      C2825   1.500       .  S
C2701      C2702   1.411       .  A
C2701      C2706   1.401       .  A
C2701      H2708   1.082       .  S
C2702      C2703   1.411       .  A
C2703      C2704   1.406       .  A
C2703      F2710   1.356       .  S
C2704      C2705   1.406       .  A
C2704      H2709   1.084       .  S
C2705      C2706   1.405       .  A
C2706      F2707   1.358       .  S
C2711      C2712   1.403       .  A
C2711      C2716   1.398       .  A
C2711      H2718   1.084       .  S
C2712      C2713   1.399       .  A
C2713      C2714   1.398       .  A
C2713      F2720   1.357       .  S
C2714      C2715   1.407       .  A
C2714      H2719   1.082       .  S
C2715      C2716   1.407       .  A
C2716      F2717   1.358       .  S
C2721      C2722   1.400       .  A
C2721      C2726   1.404       .  A
C2721      H2728   1.083       .  S
C2722      C2723   1.417       .  A
C2723      C2724   1.401       .  A
C2723      F2730   1.358       .  S
C2724      C2725   1.397       .  A
C2724      H2729   1.083       .  S
C2725      C2726   1.415       .  A
C2726      F2727   1.357       .  S
C2731      C2732   1.401       .  A
C2731      C2736   1.402       .  A
C2731      H2738   1.083       .  S
C2732      C2733   1.414       .  A
C2733      C2734   1.398       .  A
C2733      F2740   1.359       .  S
C2734      C2735   1.397       .  A
C2734      H2739   1.084       .  S
C2735      C3104   1.481       .  S
C2735      C2736   1.412       .  A
C2736      F2737   1.357       .  S
C2741      C2742   1.405       .  A
C2741      C2746   1.392       .  A
C2741      H2748   1.082       .  S
C2742      C2743   1.414       .  A
C2743      C2744   1.411       .  A
C2743      F2750   1.357       .  S
C2744      C2745   1.406       .  A
C2744      H2749   1.083       .  S
C2745      C2746   1.405       .  A
C2746      F2747   1.359       .  S
C2751      C2752   1.409       .  A
C2751      C2756   1.393       .  A
C2751      H2758   1.083       .  S
C2752      C2753   1.412       .  A
C2753      C2754   1.417       .  A
C2753      F2760   1.356       .  S
C2754      C2755   1.415       .  A
C2754      H2759   1.080       .  S
C2755      C2756   1.411       .  A
C2756      F2757   1.359       .  S
C2761      C2762   1.393       .  A
C2761      C2766   1.387       .  A
C2761      H2768   1.084       .  S
C2762      C2763   1.404       .  A
C2763      C2764   1.394       .  A
C2763      F2770   1.359       .  S
C2764      C2765   1.401       .  A
C2764      H2769   1.084       .  S
C2765      C2766   1.410       .  A
C2766      F2767   1.355       .  S
C2771      C2772   1.405       .  A
C2771      C2776   1.402       .  A
C2771      H2778   1.084       .  S
C2772      C2773   1.404       .  A
C2773      C2774   1.388       .  A
C2773      F2780   1.358       .  S
C2774      C2775   1.399       .  A
C2774      H2779   1.084       .  S
C2775      C2776   1.403       .  A
C2776      F2777   1.357       .  S
C2781      C2782   1.408       .  A
C2781      C2786   1.409       .  A
C2781      H2788   1.083       .  S
C2782      C2783   1.414       .  A
C2783      C2784   1.400       .  A
C2783      F2790   1.357       .  S
C2784      C2785   1.402       .  A
C2784      H2789   1.083       .  S
C2785      C2786   1.414       .  A
C2786      F2787   1.357       .  S
C2791      C2792   1.416       .  A
C2791      C2796   1.387       .  A
C2791      H2798   1.084       .  S
C2792      C2793   1.407       .  A
C2793      C2794   1.391       .  A
C2793      F2800   1.352       .  S
C2794      C2795   1.400       .  A
C2794      H2799   1.082       .  S
C2795      C2796   1.392       .  A
C2796      F2797   1.359       .  S
C2801      C2802   1.401       .  A
C2801      C2806   1.384       .  A
C2801      H2808   1.084       .  S
C2802      C2803   1.404       .  A
C2803      C2804   1.401       .  A
C2803      F2810   1.358       .  S
C2804      C2805   1.406       .  A
C2804      H2809   1.083       .  S
C2805      C2806   1.401       .  A
C2811      C2812   1.399       .  A
C2811      C2816   1.399       .  A
C2811      H2818   1.083       .  S
C2812      C2813   1.401   1_655  A
C2813      C2814   1.387       .  A
C2813      F2820   1.359       .  S
C2814      C2815   1.409   1_455  A
C2814      H2819   1.076       .  S
C2815      C2816   1.414       .  A
C2816      F2817   1.356       .  S
C2821      C2822   1.404       .  A
C2821      C2826   1.408       .  A
C2821      H2828   1.083       .  S
C2822      C2823   1.411       .  A
C2823      C2824   1.406       .  A
C2823      F2830   1.358       .  S
C2824      C2825   1.403       .  A
C2824      H2829   1.083       .  S
C2825      C2826   1.412       .  A
C2826      F2827   1.357       .  S
C2831      C2832   1.403   1_545  A
C2831      C2836   1.399       .  A
C2831      H2838   1.084       .  S
C2832      C2833   1.402       .  A
C2833      C2834   1.404       .  A
C2833      F2840   1.357       .  S
C2834      C2835   1.412       .  A
C2834      H2839   1.082       .  S
C2835      C2836   1.411   1_565  A
C2836      F2837   1.357       .  S
C2841      C2846   1.397       .  A
C2841      H2848   1.083   1_554  S
C2842      C2843   1.414       .  A
C2843      C2844   1.397       .  A
C2843      F2850   1.358       .  S
C2844      C2845   1.398       .  A
C2844      H2849   1.084       .  S
C2846      F2847   1.358       .  S
C2851      C2852   1.408       .  A
C2851      C2856   1.389       .  A
C2851      H2858   1.081       .  S
C2852      C2853   1.400       .  A
C2853      C2854   1.403       .  A
C2853      F2860   1.357       .  S
C2854      C2855   1.414       .  A
C2854      H2859   1.083       .  S
C2855      C2856   1.399       .  A
C2856      F2857   1.357       .  S
C2861      C2862   1.390       .  A
C2861      C2866   1.387       .  A
C2861      H2868   1.084       .  S
C2862      C2863   1.402       .  A
C2863      C2864   1.395       .  A
C2863      F3290   1.358       .  S
C2864      C2865   1.406       .  A
C2864      H3289   1.078       .  S
C2865      C2866   1.418       .  A
C2866      F2867   1.358       .  S
H2869      C3284   1.078       .  S
F2870      C3283   1.358       .  S
C2871      C2872   1.401       .  A
C2871      C2876   1.405       .  A
C2871      H2878   1.083       .  S
C2872      C2873   1.411       .  A
C2873      C2874   1.406       .  A
C2873      F2880   1.358       .  S
C2874      C2875   1.406       .  A
C2874      H2879   1.082       .  S
C2875      C2876   1.418       .  A
C2876      F2877   1.357       .  S
C2881      C2882   1.407       .  A
C2881      C2886   1.413       .  A
C2882      C2883   1.409       .  A
C2883      C2884   1.394       .  A
C2883      F2890   1.358       .  S
C2884      C2885   1.408       .  A
C2884      H2889   1.083       .  S
C2885      C2886   1.421       .  A
C2886      F2887   1.353       .  S
C2891      C3312   1.405       .  A
C2891      C2896   1.393       .  A
C2891      H2898   1.085       .  S
C2892      C3311   1.406   1_554  A
C2892      C2893   1.404       .  A
C2893      C2894   1.408       .  A
C2893      F2900   1.356       .  S
C2894      C3315   1.412       .  A
C2894      H2899   1.082       .  S
C2895      C3314   1.412       .  A
C2895      C2896   1.409       .  A
C2896      F2897   1.357       .  S
C2901      C2906   1.409       .  A
C2901      H2908   1.083       .  S
C2902      C2903   1.416       .  A
C2903      C2904   1.408       .  A
C2903      F2910   1.357       .  S
C2904      C2905   1.403       .  A
C2904      H2909   1.083       .  S
C2906      F2907   1.358       .  S
C2911      C2916   1.396       .  A
C2911      H2918   1.079       .  S
C2912      C2913   1.418       .  A
C2913      C2914   1.388   1_655  A
C2913      F2920   1.358       .  S
C2914      C2915   1.394       .  A
C2914      H2919   1.084       .  S
C2916      F2917   1.358       .  S
C2921      C2922   1.404       .  A
C2921      C2926   1.409       .  A
C2921      H2928   1.083       .  S
C2922      C2923   1.421       .  A
C2923      C2924   1.406       .  A
C2923      F2930   1.358       .  S
C2924      C2925   1.399       .  A
C2924      H2929   1.083       .  S
C2925      C2926   1.415       .  A
C2926      F2927   1.357       .  S
C2931      C2932   1.402       .  A
C2931      C2936   1.395       .  A
C2931      H2938   1.084       .  S
C2932      C2933   1.409       .  A
C2933      C2934   1.398       .  A
C2933      F2940   1.357       .  S
C2934      C2935   1.400       .  A
C2934      H2939   1.084       .  S
C2935      C2936   1.407       .  A
C2936      F2937   1.355       .  S
C2941      C2942   1.533       .  S
C2941      C2945   1.543       .  S
C2941      C3332   1.516       .  S
C2942      H2949   1.086       .  S
C2942      C2943   1.369       .  D
C2943      C3345   1.503       .  S
C2944      C2948   1.547       .  S
C2944      H2950   1.109       .  S
C2945      H2951   1.081       .  S
C2945      C2946   1.377       .  D
C2946      C3322   1.516       .  S
C2947      H2952   1.091       .  S
C2947      C2948   1.343       .  D
C2948      C3352   1.464       .  S
O2953     Eu2989   2.477       .  S
O2954      C2965   1.293       .  A
O2955      C2966   1.289       .  A
O2956     Eu2961   2.448       .  S
O2956      C2967   1.287       .  A
O2957      C2967   1.285       .  A
O2958     Eu2990   2.428   1_655  S
O2958      C2966   1.287       .  A
O2959      C2965   1.287   1_545  A
O2960     Eu2961   2.371       .  S
O2960      C2964   1.277   1_655  A
Eu2961     O2971   2.349       .  S
Eu2961     O2962   2.333       .  S
O2963     Eu2990   2.337       .  S
C2964      C3335   1.445       .  S
C2965      C3252   1.476       .  S
C2966      C3232   1.462       .  S
C2967      C3282   1.446       .  S
H2968      O2969   0.967       .  S
O2969     Eu2990   2.360   1_655  S
H2970      O2971   0.965       .  S
O2972     Eu2988   2.476       .  S
O2972      C2995   1.292       .  A
O2973     Eu2989   2.472       .  S
O2974     Eu2990   2.520   1_655  S
O2974      C2997   1.302       .  A
O2975     Eu2991   2.514       .  S
O2975      C2998   1.300       .  A
O2976     Eu2991   2.509       .  S
O2977      C3000   1.304       .  A
O2978     Eu2992   2.531       .  S
O2978      C3001   1.303       .  A
O2981     Eu2991   2.432       .  S
O2981      C3002   1.286       .  A
O2982      C2997   1.288       .  A
O2983      C3000   1.283       .  A
O2984     Eu2989   2.438       .  S
O2984      C2999   1.288       .  A
O2985     Eu2988   2.391       .  S
O2986      C2995   1.282       .  A
O2987     Eu2992   2.434       .  S
Eu2988     O3006   2.374       .  S
Eu2990     O2994   2.361   1_456  S
C2995      C3222   1.454       .  S
C2996      C3262   1.483       .  S
C2997      C3292   1.494       .  S
C2998      C3272   1.466       .  S
C2999      C3302   1.500   1_556  S
C3000      C3242   1.485       .  S
C3001      C3312   1.478       .  S
C3002      C3325   1.496       .  S
H3003      O3004   0.964       .  S
H3005      O3006   0.965       .  S
C3007      C3008   1.516       .  S
C3007      C3013   1.530       .  S
C3007      C3011   1.552       .  S
C3007      C3212   1.517       .  S
C3008      H3015   1.089       .  S
C3008      C3009   1.353       .  D
C3009      C3265   1.470       .  S
C3010      C3012   1.554       .  S
C3010      H3016   1.109       .  S
C3011      H3017   1.080       .  S
C3012      C3205   1.499       .  S
C3013      H3018   1.087       .  S
C3013      C3014   1.357       .  D
C3014      C3275   1.476       .  S
O3019     Eu3055   2.535       .  S
O3019      C3030   1.303       .  A
O3020     Eu3054   2.467       .  S
O3020      C3031   1.290       .  A
O3021     Eu3027   2.464       .  S
O3021      C3032   1.291       .  A
O3022     Eu3027   2.451       .  S
O3022      C3033   1.287       .  A
O3023     Eu3057   2.418       .  S
O3023      C3033   1.284       .  A
O3024     Eu3056   2.424       .  S
O3024      C3032   1.287       .  A
O3025     Eu3027   2.431       .  S
O3025      C3031   1.285       .  A
O3026     Eu3027   2.359       .  S
O3026      C3030   1.274       .  A
Eu3027     O3037   2.360       .  S
Eu3027     O3029   2.354       .  S
Eu3027     O3028   2.326       .  S
Eu3027     O3035   2.340       .  S
O3028     Eu3057   2.353       .  S
O3028     Eu3054   2.346       .  S
O3029     Eu3055   2.359       .  S
O3029     Eu3056   2.345       .  S
C3030      C3355   1.461       .  S
C3031      C3132   1.464       .  S
C3032      C3192   1.465       .  S
C3033      C3215   1.445       .  S
H3034      O3035   0.968       .  S
O3035     Eu3056   2.360       .  S
O3035     Eu3054   2.346       .  S
H3036      O3037   0.965       .  S
O3037     Eu3055   2.340       .  S
O3037     Eu3057   2.346       .  S
O3038     Eu3054   2.453       .  S
O3038      C3061   1.288       .  A
O3039     Eu3055   2.530       .  S
O3039      C3062   1.303       .  A
O3040     Eu3056   2.508       .  S
O3040      C3063   1.299       .  A
O3041     Eu3057   2.513       .  S
O3041      C3064   1.300       .  A
O3042     Eu3057   2.516       .  S
O3042      C3065   1.300       .  A
O3043     Eu3056   2.543       .  S
O3043      C3066   1.305       .  A
O3044     Eu3058   2.535       .  S
O3044      C3067   1.303       .  A
O3045     Eu3058   2.551       .  S
O3045      C3068   1.307       .  A
O3046     Eu3056   2.397       .  S
O3046      C3067   1.282       .  A
O3047     Eu3057   2.422       .  S
O3047      C3068   1.285       .  A
O3048     Eu3054   2.445       .  S
O3048      C3063   1.289       .  A
O3049     Eu3055   2.402       .  S
O3049      C3066   1.282       .  A
O3050     Eu3055   2.434       .  S
O3050      C3065   1.289       .  A
O3051     Eu3054   2.397       .  S
O3051      C3064   1.281       .  A
O3052     Eu3058   2.400       .  S
O3052      C3061   1.282       .  A
O3053     Eu3058   2.421       .  S
O3053      C3062   1.286       .  A
Eu3054     O3072   2.355       .  S
Eu3054     O3060   2.343       .  S
Eu3055     O3059   2.369       .  S
Eu3055     O3070   2.349       .  S
Eu3056     O3070   2.338       .  S
Eu3056     O3060   2.364       .  S
Eu3057     O3059   2.369       .  S
Eu3057     O3072   2.346       .  S
Eu3058     O3059   2.364       .  S
Eu3058     O3070   2.353       .  S
Eu3058     O3072   2.344       .  S
Eu3058     O3060   2.359       .  S
C3061      C3182   1.441       .  S
C3062      C3142   1.491       .  S
C3063      C3202   1.498       .  S
C3064      C3152   1.476       .  S
C3065      C3172   1.501       .  S
C3066      C3125   1.480       .  S
C3067      C3165   1.481       .  S
C3068      C3342   1.505       .  S
H3069      O3070   0.964       .  S
H3071      O3072   0.963       .  S
C3073      C3079   1.538       .  S
C3073      C3077   1.554       .  S
C3073      C3305   1.548       .  S
C3074      H3081   1.087       .  S
C3074      C3075   1.365       .  D
C3075      C3135   1.485       .  S
C3076      C3080   1.547       .  S
C3076      C3078   1.539       .  S
C3076      H3082   1.106       .  S
C3077      H3083   1.079   1_556  S
C3077      C3078   1.375       .  D
C3078      C3315   1.495   1_556  S
C3079      H3084   1.086       .  S
C3079      C3080   1.370       .  D
C3080      C3122   1.507       .  S
C3085      C3086   1.537   1_655  S
C3085      C3091   1.541       .  S
C3085      C3089   1.545       .  S
C3085      C3235   1.526       .  S
C3086      C3087   1.355       .  D
C3087      C3088   1.522   1_455  S
C3088      C3092   1.522       .  S
C3088      C3090   1.528       .  S
C3088      H3094   1.110       .  S
C3089      H3095   1.086       .  S
C3089      C3090   1.370       .  D
C3090      C3225   1.469       .  S
C3091      H3096   1.086       .  S
C3091      C3092   1.369       .  D
C3092      C3185   1.472       .  S
C3097      C3098   1.518       .  S
C3097      C3103   1.525       .  S
C3097      C3101   1.543       .  S
C3097      C3285   1.514       .  S
C3098      H3105   1.088       .  S
C3098      C3099   1.356       .  D
C3099      C3100   1.557       .  S
C3099      C3145   1.485       .  S
C3100      C3104   1.553   1_556  S
C3100      C3102   1.563       .  S
C3100      H3106   1.109       .  S
C3101      H3107   1.080       .  S
C3101      C3102   1.376       .  D
C3102      C3295   1.511       .  S
C3103      C3104   1.355   1_556  D
C3109      C3110   1.535       .  S
C3109      C3115   1.535       .  S
C3109      C3175   1.541       .  S
C3110      H3117   1.087       .  S
C3111      C3112   1.543   1_545  S
C3111      C3255   1.502   1_545  S
C3112      C3116   1.543       .  S
C3112      C3114   1.545       .  S
C3112      H3118   1.108       .  S
C3113      H3119   1.083       .  S
C3113      C3114   1.382       .  D
C3114      C3162   1.499       .  S
C3115      H3120   1.086       .  S
C3116      C3245   1.502       .  S
C3121      C3122   1.411       .  A
C3121      C3126   1.402       .  A
C3121      H3128   1.082       .  S
C3122      C3123   1.412       .  A
C3123      C3124   1.407       .  A
C3123      F3130   1.356       .  S
C3124      C3125   1.405       .  A
C3124      H3129   1.084       .  S
C3125      C3126   1.406       .  A
C3126      F3127   1.358       .  S
C3131      C3132   1.403       .  A
C3131      C3136   1.398       .  A
C3131      H3138   1.084       .  S
C3132      C3133   1.400       .  A
C3133      C3134   1.398       .  A
C3133      F3140   1.357       .  S
C3134      C3135   1.407       .  A
C3134      H3139   1.082       .  S
C3135      C3136   1.407       .  A
C3136      F3137   1.358       .  S
C3141      C3142   1.401       .  A
C3141      C3146   1.404       .  A
C3141      H3148   1.083       .  S
C3142      C3143   1.417       .  A
C3143      C3144   1.400       .  A
C3143      F3150   1.358       .  S
C3144      C3145   1.397       .  A
C3144      H3149   1.083       .  S
C3145      C3146   1.414       .  A
C3146      F3147   1.357       .  S
C3151      C3152   1.401       .  A
C3151      C3156   1.401       .  A
C3151      H3158   1.083       .  S
C3152      C3153   1.413       .  A
C3153      C3154   1.398       .  A
C3153      F3160   1.359       .  S
C3154      C3155   1.398       .  A
C3154      H3159   1.084       .  S
C3155      C3156   1.411       .  A
C3156      F3157   1.357       .  S
C3161      C3162   1.404       .  A
C3161      C3166   1.393       .  A
C3161      H3168   1.082       .  S
C3162      C3163   1.413       .  A
C3163      C3164   1.412       .  A
C3163      F3170   1.357       .  S
C3164      C3165   1.407       .  A
C3164      H3169   1.083       .  S
C3165      C3166   1.407       .  A
C3166      F3167   1.359       .  S
C3171      C3172   1.407       .  A
C3171      C3176   1.392       .  A
C3171      H3178   1.083       .  S
C3172      C3173   1.411       .  A
C3173      C3174   1.415       .  A
C3173      F3180   1.357       .  S
C3174      C3175   1.415       .  A
C3174      H3179   1.079       .  S
C3175      C3176   1.411       .  A
C3176      F3177   1.359       .  S
C3181      C3182   1.392       .  A
C3181      C3186   1.386       .  A
C3181      H3188   1.084       .  S
C3182      C3183   1.405       .  A
C3183      C3184   1.395       .  A
C3183      F3190   1.359       .  S
C3184      C3185   1.401       .  A
C3184      H3189   1.084       .  S
C3185      C3186   1.411       .  A
C3186      F3187   1.354       .  S
C3191      C3192   1.405       .  A
C3191      C3196   1.401       .  A
C3191      H3198   1.083       .  S
C3192      C3193   1.405       .  A
C3193      C3194   1.388       .  A
C3193      F3200   1.359       .  S
C3194      C3195   1.400       .  A
C3194      H3199   1.084       .  S
C3195      C3196   1.403       .  A
C3196      F3197   1.357       .  S
C3201      C3202   1.407       .  A
C3201      C3206   1.408       .  A
C3201      H3208   1.083       .  S
C3202      C3203   1.414       .  A
C3203      C3204   1.399       .  A
C3203      F3210   1.358       .  S
C3204      C3205   1.402       .  A
C3204      H3209   1.083       .  S
C3205      C3206   1.414       .  A
C3206      F3207   1.357       .  S
C3211      C3212   1.416       .  A
C3211      C3216   1.387       .  A
C3211      H3218   1.084       .  S
C3212      C3213   1.407       .  A
C3213      C3214   1.394       .  A
C3213      F3220   1.352       .  S
C3214      C3215   1.401       .  A
C3214      H3219   1.082       .  S
C3215      C3216   1.392       .  A
C3216      F3217   1.359       .  S
C3221      C3222   1.400       .  A
C3221      C3226   1.384       .  A
C3221      H3228   1.084       .  S
C3222      C3223   1.404       .  A
C3223      C3224   1.401       .  A
C3223      F3230   1.358       .  S
C3224      C3225   1.406       .  A
C3224      H3229   1.083       .  S
C3225      C3226   1.401       .  A
C3231      C3232   1.399       .  A
C3231      C3236   1.399       .  A
C3231      H3238   1.083       .  S
C3232      C3233   1.400   1_655  A
C3233      C3234   1.387       .  A
C3233      F3240   1.359       .  S
C3234      C3235   1.409   1_455  A
C3234      H3239   1.076       .  S
C3235      C3236   1.415       .  A
C3236      F3237   1.355       .  S
C3241      C3242   1.403       .  A
C3241      C3246   1.407       .  A
C3241      H3248   1.083       .  S
C3242      C3243   1.411       .  A
C3243      C3244   1.407       .  A
C3243      F3250   1.358       .  S
C3244      C3245   1.404       .  A
C3244      H3249   1.083       .  S
C3245      C3246   1.413       .  A
C3246      F3247   1.357       .  S
C3251      C3252   1.402   1_545  A
C3251      C3256   1.398       .  A
C3251      H3258   1.084       .  S
C3252      C3253   1.401       .  A
C3253      C3254   1.404       .  A
C3253      F3260   1.357       .  S
C3254      C3255   1.412       .  A
C3254      H3259   1.081       .  S
C3255      C3256   1.412   1_565  A
C3256      F3257   1.357       .  S
C3261      C3266   1.397       .  A
C3261      H3268   1.083       .  S
C3262      C3263   1.413       .  A
C3263      C3264   1.396       .  A
C3263      F3270   1.358       .  S
C3264      C3265   1.398       .  A
C3264      H3269   1.084       .  S
C3266      F3267   1.358       .  S
C3271      C3272   1.408       .  A
C3271      C3276   1.392       .  A
C3271      H3278   1.084       .  S
C3272      C3273   1.400       .  A
C3273      C3274   1.401       .  A
C3273      F3280   1.357       .  S
C3274      C3275   1.411       .  A
C3274      H3279   1.083       .  S
C3275      C3276   1.399       .  A
C3276      F3277   1.358       .  S
C3281      C3282   1.390       .  A
C3281      C3286   1.386       .  A
C3281      H3288   1.084       .  S
C3282      C3283   1.402       .  A
C3283      C3284   1.395       .  A
C3284      C3285   1.406       .  A
C3285      C3286   1.417       .  A
C3286      F3287   1.359       .  S
C3291      C3292   1.402       .  A
C3291      C3296   1.406       .  A
C3291      H3298   1.083       .  S
C3292      C3293   1.412       .  A
C3293      C3294   1.407       .  A
C3293      F3300   1.357       .  S
C3294      C3295   1.407       .  A
C3294      H3299   1.082       .  S
C3295      C3296   1.419       .  A
C3296      F3297   1.356       .  S
C3301      C3302   1.407       .  A
C3301      C3306   1.414       .  A
C3302      C3303   1.410   1_554  A
C3303      C3304   1.394       .  A
C3303      F3310   1.358       .  S
C3304      C3305   1.408       .  A
C3304      H3309   1.083       .  S
C3305      C3306   1.422   1_556  A
C3306      F3307   1.353       .  S
C3311      C3316   1.393       .  A
C3311      H3318   1.085       .  S
C3312      C3313   1.404       .  A
C3313      C3314   1.408       .  A
C3313      F3320   1.356       .  S
C3314      H3319   1.082       .  S
C3315      C3316   1.408   1_554  A
C3316      F3317   1.357       .  S
C3321      C3326   1.409       .  A
C3321      H3328   1.082       .  S
C3322      C3323   1.419       .  A
C3323      C3324   1.410       .  A
C3323      F3330   1.356       .  S
C3324      C3325   1.403       .  A
C3324      H3329   1.083       .  S
C3326      F3327   1.358       .  S
C3331      C3336   1.396       .  A
C3331      H3338   1.079       .  S
C3332      C3333   1.418       .  A
C3333      C3334   1.389   1_655  A
C3333      F3340   1.358       .  S
C3334      C3335   1.395       .  A
C3334      H3339   1.084       .  S
C3336      F3337   1.358       .  S
C3341      C3342   1.403       .  A
C3341      C3346   1.409       .  A
C3341      H3348   1.083       .  S
C3342      C3343   1.421       .  A
C3343      C3344   1.407       .  A
C3343      F3350   1.358       .  S
C3344      C3345   1.399       .  A
C3344      H3349   1.083       .  S
C3345      C3346   1.416       .  A
C3346      F3347   1.357       .  S
C3351      C3352   1.402       .  A
C3351      C3356   1.396       .  A
C3351      H3358   1.084       .  S
C3352      C3353   1.408       .  A
C3353      C3354   1.399       .  A
C3353      F3360   1.357       .  S
C3354      C3355   1.401       .  A
C3354      H3359   1.084       .  S
C3355      C3356   1.408       .  A
C3356      F3357   1.355       .  S
