geometry optimzed in LAMMPS
_audit_creation_date              2020-11-30 
_audit_creation_method            'lammps2cif' 
_symmetry_space_group_name_H-M    'P1' 
_symmetry_Int_Tables_number       1 
_symmetry_cell_setting            triclinic 
loop_ 
_symmetry_equiv_pos_as_xyz 
  x,y,z 
_cell_length_a                    32.80815 
_cell_length_b                    32.77968593190854 
_cell_length_c                    25.429878475302655 
_cell_angle_alpha                 89.98587854951131 
_cell_angle_beta                  90.04189666687327 
_cell_angle_gamma                 89.45605273537568 
loop_ 
_atom_site_label 
_atom_site_type_symbol 
_atom_site_fract_x 
_atom_site_fract_y 
_atom_site_fract_z 
_atom_site_charge 
C1          C  0.73726055  0.82606581  0.22550542     0.86700
C2          C  0.69147641  0.83938929  0.22262826    -0.53500
C3          C  0.67221643  0.84333212  0.27042440     0.09700
C4          C  0.69847204  0.82840805  0.31653766     0.20600
C5          C  0.75492340  0.85645883  0.26700795    -0.54200
C6          C  0.73459228  0.85664883  0.31423920     0.09800
C7          C  0.73642094  0.78491912  0.25602279    -0.53800
C8          C  0.71648790  0.78632143  0.30352814     0.10300
H9          H  0.67660611  0.84939994  0.18681536     0.14900
H10         H  0.68197786  0.82867223  0.35469146     0.00600
H11         H  0.77935697  0.87764521  0.25943968     0.15200
H12         H  0.75231100  0.75757071  0.24301373     0.14900
C13         C  0.73651776  0.71016668  0.41969247     0.86700
C14         C  0.69033296  0.69930304  0.42247708    -0.53500
C15         C  0.67097720  0.69690039  0.37460896     0.09700
C16         C  0.69758130  0.71047594  0.32868642     0.20600
C17         C  0.75312842  0.67927476  0.37785182    -0.54200
C18         C  0.73284411  0.68049674  0.33061528     0.09800
C19         C  0.73680860  0.75168688  0.38957815    -0.53800
C20         C  0.71645382  0.75160143  0.34218671     0.10300
H21         H  0.67514531  0.68979125  0.45814648     0.14900
H22         H  0.68093677  0.71122656  0.29061424     0.00600
H23         H  0.77686823  0.65680717  0.38517874     0.15200
H24         H  0.75343620  0.77820630  0.40286292     0.14900
O25         O  0.78527634  0.88524782  0.00017017    -0.57600
C26         C  0.81357810  0.99237403  0.44346809     0.75100
O27         O  0.71331878  0.89187474  0.39058441    -0.58700
C28         C  0.75800900  0.88174648  0.03513418     0.75000
C29         C  0.68713171  0.99172461  0.46028155     0.77400
Cd30       Cd  0.75074957  0.93511847  0.44789175     1.37500
O31         O  0.80414267  0.97679550  0.48715712    -0.57600
O32         O  0.70091291  0.97081646  0.99798457    -0.56400
C33         C  0.74198886  0.88374277  0.35886456     0.77400
O34         O  0.70146402  0.98505045  0.41494938    -0.58700
O35         O  0.79521994  0.98002061  0.40304244    -0.57200
O36         O  0.72566329  0.90239259  0.52914605    -0.57200
O37         O  0.77635710  0.89907785  0.36844988    -0.56400
C38         C  0.76123098  0.82506063  0.16936042     0.86700
C39         C  0.80727767  0.83629449  0.17233505    -0.53500
C40         C  0.82667915  0.83885862  0.12460113     0.09700
C41         C  0.80032964  0.82494367  0.07855309     0.20600
C42         C  0.74439918  0.85572454  0.12727243    -0.54200
C43         C  0.76477940  0.85459452  0.08010667     0.09800
C44         C  0.76136851  0.78348937  0.13945575    -0.53800
C45         C  0.78178417  0.78367577  0.09215071     0.10300
H46         H  0.82233557  0.84596897  0.20803772     0.14900
H47         H  0.81712349  0.82423494  0.04062196     0.00600
H48         H  0.72042600  0.87796732  0.13439509     0.15200
H49         H  0.74492419  0.75686976  0.15276577     0.14900
C50         C  0.76054476  0.70908863  0.47586728     0.86700
C51         C  0.80621868  0.69534567  0.47305481    -0.53500
C52         C  0.82553890  0.69149751  0.02085140     0.09700
C53         C  0.79948657  0.70680787  0.06687651     0.20600
C54         C  0.74268195  0.67903411  0.01763156    -0.54200
C55         C  0.76309326  0.67887069  0.06488532     0.09800
C56         C  0.76180645  0.75033973  0.00607149    -0.53800
C57         C  0.78181333  0.74896442  0.05355177     0.10300
H58         H  0.82101624  0.68519173  0.43728888     0.14900
H59         H  0.81609885  0.70661890  0.10497043     0.00600
H60         H  0.71797035  0.65811936  0.01024042     0.15200
H61         H  0.74601773  0.77773351  0.49296539     0.14900
O62         O  0.69241290  0.55990856  0.23678937    -0.57600
C63         C  0.73954668  0.65324822  0.28583297     0.75100
O64         O  0.79814267  0.55207545  0.16565670    -0.58700
C65         C  0.68336615  0.54413338  0.19307353     0.75000
C66         C  0.75554771  0.65204217  0.10981713     0.77400
Cd67       Cd  0.74708859  0.60019266  0.19859365     1.37500
O68         O  0.71199211  0.64921247  0.25130843    -0.57600
O69         O  0.72186970  0.63476795  0.11763333    -0.56400
C70         C  0.81120274  0.54396886  0.21126454     0.77400
O71         O  0.78348005  0.64576241  0.14330818    -0.58700
O72         O  0.77221345  0.63320425  0.27945599    -0.57200
O73         O  0.70299308  0.55529090  0.15308318    -0.57200
O74         O  0.79561306  0.56295413  0.24943223    -0.56400
O75         O  0.96201897  0.08083505  0.48911253    -0.57600
C76         C  0.85201409  0.15665183  0.41371151     0.75100
O77         O  0.90437741  0.05880642  0.33651599    -0.58700
C78         C  0.96967352  0.04264890  0.48388447     0.75000
C79         C  0.84409049  0.02343384  0.43868532     0.77400
Cd80       Cd  0.90377062  0.08238264  0.42293674     1.37500
O81         O  0.86151140  0.14212958  0.45854665    -0.57600
O82         O  0.85858875  0.04187006  0.47814711    -0.56400
C83         C  0.94186911  0.06497210  0.32866688     0.77400
O84         O  0.85667446  0.03333748  0.39368633    -0.58700
O85         O  0.87002922  0.14023056  0.37513975    -0.57200
O86         O  0.94792867  0.02444043  0.45048980    -0.57200
O87         O  0.96084506  0.08708914  0.36144705    -0.56400
O88         O  0.87019827  0.88248840  0.07170819    -0.57600
C89         C  0.97613127  0.98558317  0.04834092     0.75100
O90         O  0.95842709  0.92060083  0.18750090    -0.58700
C91         C  0.86257655  0.86590425  0.11599408     0.75000
C92         C  0.99274796  0.85875632  0.07528233     0.77400
Cd93       Cd  0.93475599  0.91695184  0.10125999     1.37500
O94         O  0.93782905  0.97954923  0.04241403    -0.57600
O95         O  0.96753176  0.86973342  0.04005970    -0.56400
C96         C  0.94589618  0.95703969  0.19282359     0.77400
O97         O  0.98932970  0.87397385  0.12068720    -0.58700
O98         O  0.99417771  0.96018431  0.07782577    -0.57200
O99         O  0.88643777  0.87491267  0.15311659    -0.57200
O100        O  0.92023906  0.97131319  0.15996136    -0.56400
O101        O  0.06093960  0.05621367  0.05192099    -0.57600
C102        C  0.13415912  0.16631504  0.12788947     0.75100
O103        O  0.01206693  0.16218587  0.14742002    -0.58700
C104        C  0.02261362  0.04922730  0.05422069     0.75000
C105        C  0.04592358  0.06506553  0.20379595     0.77400
Cd106      Cd  0.06102643  0.11390269  0.11904759     1.37500
O107        O  0.12318330  0.15124789  0.08399354    -0.57600
O108        O  0.07328537  0.05454281  0.17106678    -0.56400
C109        C  0.00193809  0.17342040  0.10167957     0.77400
O110        O  0.03451553  0.10202871  0.20519603    -0.58700
O111        O  0.11387067  0.15462052  0.16726059    -0.57200
O112        O  0.00296356  0.07183847  0.08570060    -0.57200
O113        O  0.02026873  0.15757239  0.06281684    -0.56400
O114        O  0.13339449  0.89315621  0.44243869    -0.57600
C115        C  0.03283616  0.99627527  0.48457771     0.75100
O116        O  0.14118746  0.01006410  0.39360425    -0.58700
C117        C  0.14700223  0.88491968  0.39666343     0.75000
C118        C  0.04431111  0.97454548  0.33818023     0.77400
Cd119      Cd  0.09660218  0.95858092  0.41906538     1.37500
O120        O  0.04004459  0.95780743  0.48660296    -0.57600
O121        O  0.03917875  0.94256359  0.36556298    -0.56400
C122        C  0.15737191  0.01412005  0.43841012     0.77400
O123        O  0.07693039  0.99440217  0.34364314    -0.58700
O124        O  0.05592908  0.01617595  0.45457926    -0.57200
O125        O  0.13531155  0.90889878  0.36051795    -0.57200
O126        O  0.14677318  0.99024286  0.47510436    -0.56400
C127        C  0.96742761  0.98440986  0.22896725     0.86700
C128        C  0.99108879  0.96280748  0.27266273    -0.53500
C129        C  0.01369631  0.98888725  0.30169027     0.09700
C130        C  0.00901532  0.03423154  0.28679362     0.20600
C131        C  0.94099635  0.01629295  0.25598029    -0.54200
C132        C  0.96261736  0.04234487  0.28699038     0.09800
C133        C  0.99942480  0.00851433  0.19876093    -0.53800
C134        C  0.02122826  0.03446123  0.22913148     0.10300
H135        H  0.99237306  0.92990592  0.27777693     0.14900
H136        H  0.02684858  0.05550961  0.31162886     0.00600
H137        H  0.90790417  0.01598408  0.25417016     0.15200
H138        H  0.00306533  0.00694751  0.15656499     0.14900
C139        C  0.00037626  0.01848582  0.01814926    -0.02200
C140        C  0.19057381  0.75847600  0.28517168     0.86700
C141        C  0.23184943  0.75827580  0.25485772    -0.53500
C142        C  0.23151146  0.73711577  0.20811796     0.09700
C143        C  0.19040039  0.71776019  0.19555671     0.20600
C144        C  0.15951504  0.77440512  0.24314677    -0.54200
C145        C  0.16042357  0.75308296  0.19655095     0.09800
C146        C  0.17980623  0.71230036  0.28951054    -0.53800
C147        C  0.17691893  0.69202953  0.24241252     0.10300
H148        H  0.25838446  0.77515945  0.26752761     0.14900
H149        H  0.19110685  0.70027971  0.15813601     0.00600
H150        H  0.13766070  0.79881288  0.24987391     0.15200
H151        H  0.17076975  0.69768577  0.32578787     0.14900
C152        C  0.30590337  0.75613959  0.09078348     0.86700
C153        C  0.26487950  0.75648864  0.12161938    -0.53500
C154        C  0.26602404  0.73674788  0.16931203     0.09700
C155        C  0.30765563  0.71796466  0.18228114     0.20600
C156        C  0.33695462  0.77316208  0.13166717    -0.54200
C157        C  0.33687472  0.75332275  0.17913896     0.09800
C158        C  0.31811007  0.70986408  0.08827450    -0.53800
C159        C  0.32127590  0.69074354  0.13649976     0.12700
H160        H  0.23782117  0.77280441  0.10847682     0.14900
H161        H  0.30771166  0.70186668  0.22074403     0.00600
H162        H  0.35864905  0.79706239  0.12357897     0.15200
H163        H  0.32791476  0.69472908  0.05254444     0.14900
C164        C  0.18982406  0.78307888  0.34076294     0.86700
C165        C  0.23095809  0.78309758  0.37138423    -0.53500
C166        C  0.22984993  0.80281720  0.41904156     0.09700
C167        C  0.18811290  0.82126541  0.43215646     0.20600
C168        C  0.15909691  0.76578645  0.38179766    -0.54200
C169        C  0.15926195  0.78562102  0.42924243     0.09800
C170        C  0.17713214  0.82921698  0.33818988    -0.53800
C171        C  0.17392210  0.84829496  0.38639199     0.10300
H172        H  0.25804645  0.76685998  0.35824641     0.14900
H173        H  0.18810583  0.83743778  0.47055534     0.00600
H174        H  0.13755196  0.74171215  0.37384863     0.15200
H175        H  0.16695709  0.84421856  0.30250089     0.14900
C176        C  0.30526397  0.78067853  0.03501670     0.86700
C177        C  0.26394169  0.78121204  0.00472931    -0.53500
C178        C  0.26441158  0.80223904  0.45786679     0.09700
C179        C  0.30570712  0.82112850  0.44514482     0.20600
C180        C  0.33614453  0.76436690  0.49302038    -0.54200
C181        C  0.33544787  0.78561667  0.44632424     0.09800
C182        C  0.31649489  0.82678382  0.03905923    -0.53800
C183        C  0.31953404  0.84686870  0.49180206     0.10300
H184        H  0.23726017  0.76465185  0.01754030     0.14900
H185        H  0.30508174  0.83851502  0.40763521     0.00600
H186        H  0.35789169  0.73989542  0.49996707     0.15200
H187        H  0.32589277  0.84136688  0.07521372     0.14900
O188        O  0.13287659  0.73312817  0.11445690    -0.57600
C189        C  0.02647106  0.70073565  0.06256317     0.75100
O190        O  0.02672131  0.80803357  0.02461769    -0.58700
C191        C  0.13342079  0.75912062  0.15132949     0.75000
C192        C  0.13247329  0.77732195  0.47376114     0.77400
Cd193      Cd  0.08158930  0.76580512  0.06232073     1.37500
O194        O  0.03044123  0.72242551  0.10320170    -0.57600
O195        O  0.11225202  0.74493243  0.97769700    -0.56400
C196        C  0.02441846  0.82904221  0.06618040     0.77400
O197        O  0.12903978  0.80304484  0.01060804    -0.58700
O198        O  0.05007316  0.70736487  0.02444735    -0.57200
O199        O  0.10989026  0.78954033  0.14704230    -0.57200
O200        O  0.05027891  0.82241296  0.10183892    -0.56400
O201        O  0.47015566  0.73163314  0.27496998    -0.57600
C202        C  0.36397030  0.76143945  0.22355136     0.75100
O203        O  0.36374104  0.80587460  0.36473910    -0.58700
C204        C  0.47196528  0.70980348  0.31585676     0.75000
C205        C  0.47105606  0.83724062  0.31285587     0.77400
Cd206      Cd  0.41492854  0.77301387  0.31252084     1.37500
O207        O  0.36837125  0.73517122  0.25961470    -0.57600
O208        O  0.44733902  0.83087520  0.27473576    -0.56400
C209        C  0.36282530  0.77971203  0.40142126     0.77400
O210        O  0.46667284  0.81581457  0.35367058    -0.58700
O211        O  0.38333319  0.79429990  0.22833083    -0.57200
O212        O  0.44566110  0.71564834  0.35117599    -0.57200
O213        O  0.38632501  0.74926334  0.39721849    -0.56400
O214        O  0.62303110  0.88100003  0.32432751    -0.57600
C215        C  0.52537181  0.99014476  0.35574871     0.75100
O216        O  0.54026605  0.92632548  0.20645032    -0.58700
C217        C  0.63700040  0.87238879  0.27894902     0.75000
C218        C  0.50293259  0.86704775  0.30809650     0.77400
Cd219      Cd  0.56371181  0.92518508  0.29224944     1.37500
O220        O  0.56368821  0.98284990  0.35971910    -0.57600
O221        O  0.52703256  0.87529010  0.34548993    -0.56400
C222        C  0.54637862  0.96392711  0.19901162     0.77400
O223        O  0.50814135  0.88493625  0.26477570    -0.58700
O224        O  0.50675866  0.96855413  0.32265989    -0.57200
O225        O  0.62022309  0.89130119  0.24127524    -0.57200
O226        O  0.56883282  0.98272837  0.23159610    -0.56400
O227        O  0.46214756  0.95762137  0.41370290    -0.57600
C228        C  0.34743683  0.88242863  0.98422967     0.75100
O229        O  0.40191480  0.97730073  0.05923787    -0.58700
C230        C  0.46856580  0.99579431  0.42051819     0.75000
C231        C  0.34202722  0.01490382  0.45398481     0.77400
Cd232      Cd  0.39939522  0.95475268  0.97246558     1.37500
O233        O  0.36150699  0.89266848  0.43941598    -0.57600
O234        O  0.35246298  0.99217918  0.41581338    -0.56400
C235        C  0.43901131  0.96686694  0.06359898     0.77400
O236        O  0.35769439  0.00837881  0.99851571    -0.58700
O237        O  0.35984977  0.90324727  0.02272250    -0.57200
O238        O  0.44319493  0.01371179  0.45004593    -0.57200
O239        O  0.45420156  0.94195878  0.03043739    -0.56400
C240        C  0.46559372  0.98930781  0.09979373     0.86700
C241        C  0.49756029  0.96314493  0.12685562    -0.53500
C242        C  0.52331483  0.98486335  0.15799349     0.09700
C243        C  0.51474825  0.03119119  0.15818444     0.20600
C244        C  0.44356509  0.01272272  0.14342492    -0.54200
C245        C  0.46933248  0.03543998  0.17289910     0.09800
C246        C  0.48947071  0.02169121  0.06991663    -0.53800
C247        C  0.51514237  0.04361247  0.10058471     0.10300
H248        H  0.49770597  0.93002399  0.12464951     0.14900
H249        H  0.53580682  0.04906398  0.18327332     0.00600
H250        H  0.41068306  0.01349615  0.14846655     0.15200
H251        H  0.48837211  0.02519448  0.02761010     0.14900
O252        O  0.63276234  0.14478201  0.46149043    -0.57600
C253        C  0.53223290  0.04239517  0.42691877     0.75100
O254        O  0.64262532  0.02767761  0.01579723    -0.58700
C255        C  0.64804382  0.15404943  0.00594854     0.75000
C256        C  0.54653095  0.06737834  0.07546387     0.77400
Cd257      Cd  0.59679088  0.08071647  0.99203456     1.37500
O258        O  0.53959878  0.08067337  0.42434227    -0.57600
O259        O  0.53688233  0.09426078  0.04159755    -0.56400
C260        C  0.65649219  0.02255764  0.46984451     0.77400
O261        O  0.58332646  0.05550513  0.07837999    -0.58700
O262        O  0.55446320  0.02264517  0.45881228    -0.57200
O263        O  0.63749372  0.13156068  0.04387593    -0.57200
O264        O  0.64322017  0.04548065  0.43344422    -0.56400
C265        C  0.50143409  0.02034083  0.39073907    -0.02200
O266        O  0.44023946  0.05944146  0.36040933    -0.57600
C267        C  0.36496146  0.16720976  0.27940664     0.75100
O268        O  0.48578467  0.16629358  0.26742880    -0.58700
C269        C  0.47876233  0.05283728  0.35780551     0.75000
C270        C  0.45488872  0.06520514  0.21072292     0.77400
Cd271      Cd  0.43919611  0.11618281  0.29417013     1.37500
O272        O  0.37484392  0.15260392  0.32414726    -0.57600
O273        O  0.42292975  0.05953248  0.23788628    -0.56400
C274        C  0.49332693  0.17828089  0.31369837     0.77400
O275        O  0.47485702  0.09755826  0.21786888    -0.58700
O276        O  0.38713764  0.15577979  0.24134241    -0.57200
O277        O  0.49810839  0.07633074  0.32767071    -0.57200
O278        O  0.47402973  0.16239826  0.35156727    -0.56400
O279        O  0.13711519  0.64410047  0.19037398    -0.57600
C280        C  0.03058458  0.54078128  0.17197947     0.75100
O281        O  0.14382162  0.53092694  0.25242066    -0.58700
C282        C  0.14978225  0.65584369  0.23525834     0.75000
C283        C  0.05989033  0.56920814  0.31536191     0.77400
Cd284      Cd  0.09947733  0.58227307  0.22462064     1.37500
O285        O  0.03661650  0.57907918  0.16582105    -0.57600
O286        O  0.04477436  0.59447925  0.28257420    -0.56400
C287        C  0.15757827  0.52249628  0.20738166     0.77400
O288        O  0.09694642  0.55866760  0.31093596    -0.58700
O289        O  0.05617603  0.52285783  0.20125199    -0.57200
O290        O  0.13660896  0.63595483  0.27413465    -0.57200
O291        O  0.14534231  0.54349477  0.16842851    -0.56400
O292        O  0.96005021  0.45567235  0.17570299    -0.57600
C293        C  0.84918480  0.38333229  0.25571997     0.75100
O294        O  0.91524641  0.48137528  0.32813262    -0.58700
C295        C  0.96687395  0.49408600  0.17785906     0.75000
C296        C  0.84239468  0.51362605  0.22052387     0.77400
Cd297      Cd  0.90212673  0.45552407  0.24226361     1.37500
O298        O  0.86442085  0.39245054  0.21119979    -0.57600
O299        O  0.85622664  0.49141005  0.18377252    -0.56400
C300        C  0.95191531  0.46903686  0.32609230     0.77400
O301        O  0.85612045  0.50815667  0.26651541    -0.58700
O302        O  0.86079466  0.40514708  0.29379065    -0.57200
O303        O  0.94400531  0.51380339  0.20897461    -0.57200
O304        O  0.96156696  0.44160728  0.29297405    -0.56400
O305        O  0.87504058  0.65434948  0.07496695    -0.57600
C306        C  0.97384205  0.54659919  0.10696080     0.75100
O307        O  0.95762388  0.60991182  0.45682800    -0.58700
C308        C  0.86103034  0.66280552  0.52952633     0.75000
C309        C  0.99514177  0.67033304  0.05808111     0.77400
Cd310      Cd  0.93509872  0.61123781  0.04307311     1.37500
O311        O  0.93552508  0.55385164  0.11084510    -0.57600
O312        O  0.97128285  0.66188562  0.09560586    -0.56400
C313        C  0.95238217  0.57207777  0.45021193     0.77400
O314        O  0.99015006  0.65209859  0.01495803    -0.58700
O315        O  0.99243254  0.56826187  0.07392667    -0.57200
O316        O  0.87811011  0.64415788  0.49190822    -0.57200
O317        O  0.93072989  0.55310201  0.48347305    -0.56400
O318        O  0.12324853  0.38340372  0.07463501    -0.57600
C319        C  0.02015153  0.48373453  0.10885491     0.75100
O320        O  0.02319232  0.43798465  0.46855330    -0.58700
C321        C  0.13227461  0.36784884  0.53014188     0.75000
C322        C  0.00267615  0.35881496  0.06461193     0.77400
Cd323      Cd  0.05841163  0.41946383  0.04530045     1.37500
O324        O  0.05860970  0.47676049  0.11129417    -0.57600
O325        O  0.02214408  0.37429916  0.10265791    -0.56400
C326        C  0.04330906  0.47025605  0.46162102     0.77400
O327        O  0.01082959  0.37042481  0.01839321    -0.58700
O328        O  0.00046997  0.46037721  0.07889095    -0.57200
O329        O  0.10910821  0.37812825  0.49249402    -0.57200
O330        O  0.07512127  0.47584555  0.48911916    -0.56400
C331        C  0.03321911  0.54666716  0.35121052     0.86700
C332        C  0.00150284  0.57290414  0.37853040    -0.53500
C333        C  0.97557124  0.55118343  0.40935265     0.09700
C334        C  0.98376635  0.50479620  0.40907699     0.20600
C335        C  0.05509638  0.52277951  0.39457887    -0.54200
C336        C  0.02914365  0.50010400  0.42378087     0.09800
C337        C  0.00905660  0.51470425  0.32092084    -0.53800
C338        C  0.98327322  0.49275342  0.35136368     0.10300
H339        H  0.00160146  0.60603395  0.37662977     0.14900
H340        H  0.96256954  0.48693116  0.43395562     0.00600
H341        H  0.08797087  0.52176094  0.39972012     0.15200
H342        H  0.01015615  0.51143253  0.27860589     0.14900
C343        C  0.99774345  0.51628333  0.14193400    -0.02200
C344        C  0.80528133  0.25761434  0.36307508     0.86700
C345        C  0.76387178  0.25583405  0.39304158    -0.53500
C346        C  0.76509621  0.23493588  0.44005938     0.09700
C347        C  0.80728109  0.21718126  0.45310711     0.20600
C348        C  0.83513796  0.27479218  0.40558671    -0.54200
C349        C  0.83503640  0.25375241  0.45235851     0.09800
C350        C  0.81887926  0.21194918  0.35923322    -0.53800
C351        C  0.82284132  0.19194327  0.40645307     0.10300
H352        H  0.73658829  0.27191948  0.38020991     0.14900
H353        H  0.80739831  0.19982183  0.49063466     0.00600
H354        H  0.85617137  0.29952507  0.39908686     0.15200
H355        H  0.82875980  0.19744605  0.32317898     0.14900
C356        C  0.69032273  0.25617930  0.05712222     0.86700
C357        C  0.73149516  0.25543003  0.02648466    -0.53500
C358        C  0.73068623  0.23475069  0.47931918     0.09700
C359        C  0.68909691  0.21617450  0.46678023     0.20600
C360        C  0.65941584  0.27284972  0.01522104    -0.54200
C361        C  0.65988451  0.25207246  0.46837684     0.09800
C362        C  0.67863040  0.21016507  0.06093185    -0.53800
C363        C  0.67530152  0.19024375  0.01353751     0.10300
H364        H  0.75829245  0.27188916  0.03911741     0.14900
H365        H  0.68914340  0.19921115  0.42894587     0.00600
H366        H  0.63746746  0.29712460  0.02209136     0.15200
H367        H  0.66930118  0.19548511  0.09703305     0.14900
O368        O  0.53820222  0.32382170  0.29932655    -0.57600
C369        C  0.63416781  0.27769433  0.24738034     0.75100
O370        O  0.62621553  0.23150784  0.39052772    -0.58700
C371        C  0.52552711  0.33437646  0.34420980     0.75000
C372        C  0.52355932  0.20901326  0.32230879     0.77400
Cd373      Cd  0.58156429  0.27014096  0.33483046     1.37500
O374        O  0.62927957  0.30531245  0.28169264    -0.57600
O375        O  0.53960315  0.22676030  0.28368900    -0.56400
C376        C  0.63313486  0.25972219  0.42331391     0.77400
O377        O  0.53525316  0.21873194  0.36792705    -0.58700
O378        O  0.61562228  0.24456019  0.25438936    -0.57200
O379        O  0.54054146  0.31669191  0.38383538    -0.57200
O380        O  0.61675429  0.29409197  0.41466535    -0.56400
C381        C  0.80506340  0.28238790  0.30722310     0.86700
C382        C  0.76382692  0.28347997  0.27654813    -0.53500
C383        C  0.76477118  0.30405644  0.22925745     0.09700
C384        C  0.80659702  0.32210643  0.21667420     0.20600
C385        C  0.83577319  0.26530008  0.26543126    -0.54200
C386        C  0.83541536  0.28586465  0.21844198     0.09800
C387        C  0.81720382  0.32825635  0.31079328    -0.53800
C388        C  0.82083264  0.34797619  0.26331559     0.10300
H389        H  0.73688549  0.26730758  0.28925765     0.14900
H390        H  0.80667070  0.33903075  0.17880580     0.00600
H391        H  0.85760693  0.24095118  0.27248790     0.15200
H392        H  0.82677502  0.34290971  0.34681912     0.14900
C393        C  0.69010672  0.28114750  0.11280838     0.86700
C394        C  0.73155773  0.28315114  0.14279671    -0.53500
C395        C  0.73033549  0.30408575  0.18979575     0.09700
C396        C  0.68805640  0.32176946  0.20268440     0.20600
C397        C  0.66043417  0.26391241  0.15535747    -0.54200
C398        C  0.66050896  0.28503943  0.20202680     0.09800
C399        C  0.67627113  0.32674153  0.10876020    -0.53800
C400        C  0.67228177  0.34687304  0.15588269     0.10300
H401        H  0.75884506  0.26704080  0.13007733     0.14900
H402        H  0.68783248  0.33913348  0.24019966     0.00600
H403        H  0.63956201  0.23900467  0.14896940     0.15200
H404        H  0.66621954  0.34105736  0.07262033     0.14900
O405        O  0.95902085  0.32004435  0.11835292    -0.57600
C406        C  0.86218019  0.27789686  0.17353190     0.75100
O407        O  0.86505695  0.23376960  0.03304542    -0.58700
C408        C  0.97182218  0.32871446  0.07291201     0.75000
C409        C  0.97079570  0.20408497  0.09501327     0.77400
Cd410      Cd  0.91406694  0.26767161  0.08547333     1.37500
O411        O  0.86806159  0.30553903  0.13963949    -0.57600
O412        O  0.96037157  0.22603737  0.13344787    -0.56400
C413        C  0.86159531  0.26085128  0.99769831     0.77400
O414        O  0.95329587  0.21013046  0.05139675    -0.58700
O415        O  0.87977772  0.24392680  0.16623543    -0.57200
O416        O  0.95653927  0.31031817  0.03422883    -0.57200
O417        O  0.88183148  0.29313263  0.00358539    -0.56400
O418        O  0.53293764  0.45776414  0.23763461    -0.57600
C419        C  0.64297584  0.38215790  0.16294080     0.75100
O420        O  0.58969671  0.48206998  0.08619515    -0.58700
C421        C  0.52539188  0.49599167  0.23273401     0.75000
C422        C  0.65185056  0.51418924  0.18786871     0.77400
Cd423      Cd  0.59111982  0.45658492  0.17171844     1.37500
O424        O  0.63415087  0.39733164  0.20759866    -0.57600
O425        O  0.63616956  0.49667755  0.22725164    -0.56400
C426        C  0.55245363  0.47488273  0.07775518     0.77400
O427        O  0.63953341  0.50436687  0.14267819    -0.58700
O428        O  0.62417507  0.39792161  0.12444736    -0.57200
O429        O  0.54730405  0.51441143  0.19975032    -0.57200
O430        O  0.53396291  0.45190770  0.10997092    -0.56400
O431        O  0.62629539  0.65503296  0.32087125    -0.57600
C432        C  0.51910846  0.55285039  0.29711201     0.75100
O433        O  0.53716772  0.61784172  0.43557633    -0.58700
C434        C  0.63454770  0.67057132  0.36559844     0.75000
C435        C  0.50358389  0.68000694  0.32453266     0.77400
Cd436      Cd  0.56111374  0.62126039  0.34960176     1.37500
O437        O  0.55728994  0.55916527  0.29040937    -0.57600
O438        O  0.52852215  0.66906273  0.28901507    -0.56400
C439        C  0.54818713  0.58084549  0.43998790     0.77400
O440        O  0.50719767  0.66461841  0.36980645    -0.58700
O441        O  0.50131251  0.57804016  0.32706969    -0.57200
O442        O  0.61078333  0.66119046  0.40263658    -0.57200
O443        O  0.57349054  0.56605398  0.40708326    -0.56400
O444        O  0.36030373  0.64445239  0.19259277    -0.57600
C445        C  0.46232662  0.54231692  0.23344488     0.75100
O446        O  0.35352603  0.52890149  0.14100948    -0.58700
C447        C  0.34766023  0.65369510  0.14665079     0.75000
C448        C  0.44949338  0.56403043  0.08565786     0.77400
Cd449      Cd  0.39837290  0.57986177  0.16788900     1.37500
O450        O  0.45524829  0.58081672  0.23533448    -0.57600
O451        O  0.45468771  0.59628080  0.11247612    -0.56400
C452        C  0.33902610  0.52278973  0.18635107     0.77400
O453        O  0.41741621  0.54363341  0.09260920    -0.58700
O454        O  0.43925657  0.52247655  0.20336736    -0.57200
O455        O  0.36006828  0.63045563  0.11016670    -0.57200
O456        O  0.35020010  0.54566520  0.22381197    -0.56400
O457        O  0.37222081  0.38532216  0.33337376    -0.57600
C458        C  0.47248095  0.48896105  0.30290660     0.75100
O459        O  0.46020518  0.43549352  0.45361819    -0.58700
C460        C  0.36234553  0.36940799  0.37722757     0.75000
C461        C  0.49428946  0.36496339  0.35078119     0.77400
Cd462      Cd  0.43428798  0.42355532  0.36746443     1.37500
O463        O  0.43414157  0.48198568  0.30071080    -0.57600
O464        O  0.47439464  0.37906166  0.31200926    -0.56400
C465        C  0.44837469  0.47231665  0.45211536     0.77400
O466        O  0.48549170  0.37771548  0.39629857    -0.58700
O467        O  0.49218598  0.46597856  0.33393576    -0.57200
O468        O  0.38321545  0.38085176  0.41623781    -0.57200
O469        O  0.42071258  0.48249517  0.41954165    -0.56400
C470        C  0.52624713  0.55386258  0.47615013     0.86700
C471        C  0.50191075  0.57579542  0.01894510    -0.53500
C472        C  0.47958109  0.54979542  0.04845695     0.09700
C473        C  0.48494756  0.50432729  0.03468314     0.20600
C474        C  0.55287363  0.52279813  0.00433361    -0.54200
C475        C  0.53145967  0.49690312  0.03566860     0.09800
C476        C  0.49480556  0.52890978  0.44610330    -0.53800
C477        C  0.47306782  0.50319158  0.47687939     0.10300
H478        H  0.50034708  0.60873492  0.02350279     0.14900
H479        H  0.46728872  0.48313222  0.05981722     0.00600
H480        H  0.58597512  0.52346969  0.00282189     0.15200
H481        H  0.49132940  0.52992234  0.40380249     0.14900
C482        C  0.49470867  0.51998219  0.26703915    -0.02200
C483        C  0.26218759  0.21086189  0.22927993     0.86700
C484        C  0.30816320  0.19837327  0.22477203    -0.53500
C485        C  0.32849685  0.19485455  0.27192321     0.09700
C486        C  0.30292091  0.20922543  0.31895309     0.20600
C487        C  0.24601140  0.18033980  0.27129820    -0.54200
C488        C  0.26704613  0.18067529  0.31783530     0.09800
C489        C  0.26303435  0.25217421  0.25971602    -0.53800
C490        C  0.28411336  0.25109318  0.30663493     0.10300
H491        H  0.32242711  0.18863940  0.18845161     0.14900
H492        H  0.32017320  0.20907291  0.35657295     0.00600
H493        H  0.22164109  0.15886257  0.26475287     0.15200
H494        H  0.24624010  0.27914522  0.24721995     0.14900
C495        C  0.26061272  0.32452888  0.42433897     0.86700
C496        C  0.30650778  0.33629937  0.42971581    -0.53500
C497        C  0.32715543  0.34052922  0.38306155     0.09700
C498        C  0.30218574  0.32688134  0.33538473     0.20600
C499        C  0.24447506  0.35579874  0.38256573    -0.54200
C500        C  0.26613580  0.35590189  0.33634105     0.09800
C501        C  0.26201140  0.28366224  0.39308144    -0.53800
C502        C  0.28350243  0.28506749  0.34657451     0.10300
H503        H  0.32057130  0.34519111  0.46640420     0.14900
H504        H  0.31994165  0.32710995  0.29819661     0.00600
H505        H  0.21956142  0.37709629  0.38901167     0.15200
H506        H  0.24548612  0.25666117  0.40487277     0.14900
O507        O  0.29105821  0.05173433  0.40801224    -0.57600
C508        C  0.25923281  0.15454178  0.36304969     0.75100
O509        O  0.21001709  0.04630569  0.48599660    -0.58700
C510        C  0.31218018  0.04685523  0.44908760     0.75000
C511        C  0.23839912  0.15251832  0.04133401     0.77400
Cd512      Cd  0.24875053  0.10313271  0.45077500     1.37500
O513        O  0.28627599  0.14963694  0.39805873    -0.57600
O514        O  0.27177209  0.13392278  0.03426523    -0.56400
C515        C  0.18710679  0.04543324  0.44609073     0.77400
O516        O  0.21114116  0.14823715  0.00656935    -0.58700
O517        O  0.22585741  0.13639491  0.36934741    -0.57200
O518        O  0.30541242  0.07000783  0.98778062    -0.57200
O519        O  0.19130897  0.07275348  0.41166447    -0.56400
C520        C  0.23647593  0.21051914  0.17442997     0.86700
C521        C  0.19061778  0.19881804  0.17994774    -0.53500
C522        C  0.16987500  0.19454981  0.13334972     0.09700
C523        C  0.19481319  0.20798082  0.08552121     0.20600
C524        C  0.25253751  0.17913621  0.13288570    -0.54200
C525        C  0.23086842  0.17891736  0.08668738     0.09800
C526        C  0.23507324  0.25131342  0.14304244    -0.53800
C527        C  0.21356292  0.24983600  0.09652633     0.10300
H528        H  0.17661502  0.19013368  0.21676640     0.14900
H529        H  0.17705346  0.20761027  0.04830924     0.00600
H530        H  0.27747368  0.15786057  0.13944561     0.15200
H531        H  0.25159209  0.27833529  0.15480199     0.14900
C532        C  0.23499833  0.32423575  0.47937301     0.86700
C533        C  0.18907861  0.33707904  0.47513158    -0.53500
C534        C  0.16889359  0.34046839  0.02239134     0.09700
C535        C  0.19456234  0.32583629  0.06926563     0.20600
C536        C  0.25152968  0.35447240  0.02158041    -0.54200
C537        C  0.23068896  0.35410185  0.06824634     0.09800
C538        C  0.23389657  0.28280734  0.00962502    -0.53800
C539        C  0.21295239  0.28386291  0.05662350     0.10300
H540        H  0.17473534  0.34700855  0.43892839     0.14900
H541        H  0.17744525  0.32601153  0.10695702     0.00600
H542        H  0.27597739  0.37585283  0.01508498     0.15200
H543        H  0.25048473  0.25576396  0.49699467     0.14900
O544        O  0.20365812  0.48131524  0.15907645    -0.57600
C545        C  0.23884324  0.38008442  0.11364704     0.75100
O546        O  0.29368017  0.48394254  0.23778787    -0.58700
C547        C  0.18698440  0.49009651  0.20236129     0.75000
C548        C  0.25887509  0.38230988  0.29085907     0.77400
Cd549      Cd  0.24936175  0.43225205  0.20083555     1.37500
O550        O  0.21173807  0.38544249  0.14847100    -0.57600
O551        O  0.22547364  0.40081956  0.28332826    -0.56400
C552        C  0.31036556  0.49048605  0.19390982     0.77400
O553        O  0.28645947  0.38669818  0.25650302    -0.58700
O554        O  0.27250641  0.39773894  0.12020604    -0.57200
O555        O  0.19741164  0.47002505  0.24254029    -0.57200
O556        O  0.30096695  0.46790029  0.15577405    -0.56400
C557        C  0.73726076  0.82606613  0.72550567     0.86700
C558        C  0.69147649  0.83938928  0.72262851    -0.53500
C559        C  0.67221646  0.84333212  0.77042471     0.09700
C560        C  0.69847223  0.82840814  0.81653760     0.20600
C561        C  0.75492327  0.85645868  0.76700814    -0.54200
C562        C  0.73459264  0.85664899  0.81423925     0.09800
C563        C  0.73642105  0.78491911  0.75602283    -0.53800
C564        C  0.71648770  0.78632158  0.80352834     0.10300
H565        H  0.67660668  0.84939987  0.68681632     0.14900
H566        H  0.68197758  0.82867231  0.85469315     0.00600
H567        H  0.77936010  0.87764782  0.75943869     0.15200
H568        H  0.75230963  0.75757264  0.74301452     0.14900
C569        C  0.73651768  0.71016673  0.91969256     0.86700
C570        C  0.69033309  0.69930310  0.92247699    -0.53500
C571        C  0.67097714  0.69690039  0.87460929     0.09700
C572        C  0.69758120  0.71047595  0.82868643     0.20600
C573        C  0.75312858  0.67927459  0.87785203    -0.54200
C574        C  0.73284401  0.68049675  0.83061547     0.09800
C575        C  0.73680860  0.75168702  0.88957822    -0.53800
C576        C  0.71645363  0.75160144  0.84218686     0.10300
H577        H  0.67514446  0.68979076  0.95814904     0.14900
H578        H  0.68093717  0.71122657  0.79061549     0.00600
H579        H  0.77686682  0.65680897  0.88517816     0.15200
H580        H  0.75343578  0.77820556  0.90286224     0.14900
O581        O  0.78527630  0.88524772  0.50017032    -0.57600
C582        C  0.81357811  0.99237405  0.94346812     0.75100
O583        O  0.71331880  0.89187499  0.89058435    -0.58700
C584        C  0.75800891  0.88174637  0.53513411     0.75000
C585        C  0.68713165  0.99172472  0.96028165     0.77400
Cd586      Cd  0.75074953  0.93511860  0.94789183     1.37500
O587        O  0.80414277  0.97679560  0.98715727    -0.57600
O588        O  0.70091286  0.97081626  0.49798441    -0.56400
C589        C  0.74198901  0.88374282  0.85886472     0.77400
O590        O  0.70146388  0.98505056  0.91494941    -0.58700
O591        O  0.79521996  0.98002072  0.90304233    -0.57200
O592        O  0.72566324  0.90239244  0.02914608    -0.57200
O593        O  0.77635732  0.89907785  0.86845011    -0.56400
C594        C  0.76123086  0.82506068  0.66936060     0.86700
C595        C  0.80727767  0.83629446  0.67233501    -0.53500
C596        C  0.82667915  0.83885859  0.62460145     0.09700
C597        C  0.80032966  0.82494377  0.57855323     0.20600
C598        C  0.74439927  0.85572452  0.62727233    -0.54200
C599        C  0.76477922  0.85459466  0.58010688     0.09800
C600        C  0.76136858  0.78348955  0.63945579    -0.53800
C601        C  0.78178400  0.78367570  0.59215102     0.10300
H602        H  0.82233598  0.84596972  0.70803891     0.14900
H603        H  0.81712302  0.82423522  0.54062369     0.00600
H604        H  0.72042460  0.87796915  0.63439566     0.15200
H605        H  0.74492258  0.75686759  0.65276701     0.14900
C606        C  0.76054477  0.70908865  0.97586703     0.86700
C607        C  0.80621854  0.69534575  0.97305487    -0.53500
C608        C  0.82553893  0.69149746  0.52085180     0.09700
C609        C  0.79948672  0.70680796  0.56687666     0.20600
C610        C  0.74268208  0.67903414  0.51763163    -0.54200
C611        C  0.76309354  0.67887065  0.56488536     0.09800
C612        C  0.76180645  0.75033982  0.50607154    -0.53800
C613        C  0.78181341  0.74896445  0.55355193     0.10300
H614        H  0.82101699  0.68519073  0.93728657     0.14900
H615        H  0.81609943  0.70661902  0.60497124     0.00600
H616        H  0.71797050  0.65811960  0.51024058     0.15200
H617        H  0.74601767  0.77773445  0.99296450     0.14900
O618        O  0.69241302  0.55990843  0.73678919    -0.57600
C619        C  0.73954671  0.65324812  0.78583315     0.75100
O620        O  0.79814265  0.55207561  0.66565670    -0.58700
C621        C  0.68336625  0.54413325  0.69307347     0.75000
C622        C  0.75554785  0.65204215  0.60981701     0.77400
Cd623      Cd  0.74708860  0.60019275  0.69859357     1.37500
O624        O  0.71199229  0.64921245  0.75130846    -0.57600
O625        O  0.72186985  0.63476790  0.61763326    -0.56400
C626        C  0.81120277  0.54396883  0.71126434     0.77400
O627        O  0.78348012  0.64576252  0.64330811    -0.58700
O628        O  0.77221350  0.63320433  0.77945584    -0.57200
O629        O  0.70299307  0.55529100  0.65308319    -0.57200
O630        O  0.79561314  0.56295415  0.74943186    -0.56400
O631        O  0.96201894  0.08083499  0.98911237    -0.57600
C632        C  0.85201406  0.15665188  0.91371121     0.75100
O633        O  0.90437734  0.05880624  0.83651612    -0.58700
C634        C  0.96967352  0.04264884  0.98388440     0.75000
C635        C  0.84409035  0.02343381  0.93868523     0.77400
Cd636      Cd  0.90377058  0.08238264  0.92293664     1.37500
O637        O  0.86151141  0.14212963  0.95854633    -0.57600
O638        O  0.85858874  0.04186997  0.97814687    -0.56400
C639        C  0.94186902  0.06497216  0.82866678     0.77400
O640        O  0.85667425  0.03333752  0.89368637    -0.58700
O641        O  0.87002908  0.14023051  0.87513946    -0.57200
O642        O  0.94792871  0.02444036  0.95048972    -0.57200
O643        O  0.96084494  0.08708923  0.86144688    -0.56400
O644        O  0.87019840  0.88248840  0.57170832    -0.57600
C645        C  0.97613133  0.98558318  0.54834106     0.75100
O646        O  0.95842710  0.92060083  0.68750077    -0.58700
C647        C  0.86257659  0.86590429  0.61599411     0.75000
C648        C  0.99274793  0.85875624  0.57528217     0.77400
Cd649      Cd  0.93475609  0.91695177  0.60125980     1.37500
O650        O  0.93782906  0.97954926  0.54241397    -0.57600
O651        O  0.96753177  0.86973333  0.54005948    -0.56400
C652        C  0.94589613  0.95703965  0.69282352     0.77400
O653        O  0.98932969  0.87397382  0.62068705    -0.58700
O654        O  0.99417797  0.96018420  0.57782571    -0.57200
O655        O  0.88643795  0.87491266  0.65311639    -0.57200
O656        O  0.92023908  0.97131316  0.65996120    -0.56400
O657        O  0.06093949  0.05621377  0.55192107    -0.57600
C658        C  0.13415911  0.16631490  0.62788948     0.75100
O659        O  0.01206689  0.16218577  0.64742018    -0.58700
C660        C  0.02261357  0.04922728  0.55422085     0.75000
C661        C  0.04592365  0.06506550  0.70379605     0.77400
Cd662      Cd  0.06102642  0.11390263  0.61904770     1.37500
O663        O  0.12318317  0.15124789  0.58399358    -0.57600
O664        O  0.07328540  0.05454263  0.67106675    -0.56400
C665        C  0.00193805  0.17342029  0.60167974     0.77400
O666        O  0.03451548  0.10202869  0.70519615    -0.58700
O667        O  0.11387062  0.15462030  0.66726052    -0.57200
O668        O  0.00296355  0.07183840  0.58570080    -0.57200
O669        O  0.02026869  0.15757228  0.56281698    -0.56400
O670        O  0.13339450  0.89315627  0.94243887    -0.57600
C671        C  0.03283616  0.99627527  0.98457756     0.75100
O672        O  0.14118741  0.01006425  0.89360415    -0.58700
C673        C  0.14700229  0.88491968  0.89666359     0.75000
C674        C  0.04431117  0.97454545  0.83818010     0.77400
Cd675      Cd  0.09660216  0.95858087  0.91906529     1.37500
O676        O  0.04004461  0.95780742  0.98660304    -0.57600
O677        O  0.03917874  0.94256368  0.86556293    -0.56400
C678        C  0.15737198  0.01411995  0.93841005     0.77400
O679        O  0.07693051  0.99440199  0.84364291    -0.58700
O680        O  0.05592910  0.01617596  0.95457904    -0.57200
O681        O  0.13531145  0.90889859  0.86051804    -0.57200
O682        O  0.14677322  0.99024270  0.97510429    -0.56400
C683        C  0.96742741  0.98440971  0.72896725     0.86700
C684        C  0.99108882  0.96280751  0.77266263    -0.53500
C685        C  0.01369621  0.98888689  0.80169022     0.09700
C686        C  0.00901530  0.03423130  0.78679356     0.20600
C687        C  0.94099634  0.01629287  0.75598042    -0.54200
C688        C  0.96261712  0.04234468  0.78699031     0.09800
C689        C  0.99942464  0.00851437  0.69876072    -0.53800
C690        C  0.02122801  0.03446122  0.72913128     0.10300
H691        H  0.99237297  0.92990343  0.77777726     0.14900
H692        H  0.02684831  0.05550884  0.81162805     0.00600
H693        H  0.90790173  0.01598386  0.75417067     0.15200
H694        H  0.00306534  0.00694744  0.65656481     0.14900
C695        C  0.00037624  0.01848586  0.51814937    -0.02200
C696        C  0.19057385  0.75847613  0.78517146     0.86700
C697        C  0.23184949  0.75827580  0.75485763    -0.53500
C698        C  0.23151151  0.73711581  0.70811780     0.09700
C699        C  0.19040038  0.71776020  0.69555654     0.20600
C700        C  0.15951507  0.77440535  0.74314656    -0.54200
C701        C  0.16042353  0.75308295  0.69655082     0.09800
C702        C  0.17980603  0.71230029  0.78951087    -0.53800
C703        C  0.17691888  0.69202956  0.74241229     0.10300
H704        H  0.25838442  0.77515932  0.76752750     0.14900
H705        H  0.19110688  0.70027987  0.65813574     0.00600
H706        H  0.13766076  0.79881227  0.74987373     0.15200
H707        H  0.17076998  0.69768707  0.82578461     0.14900
C708        C  0.30590303  0.75613977  0.59078335     0.86700
C709        C  0.26487974  0.75648865  0.62161951    -0.53500
C710        C  0.26602385  0.73674825  0.66931163     0.09700
C711        C  0.30765554  0.71796463  0.68228127     0.20600
C712        C  0.33695455  0.77316206  0.63166708    -0.54200
C713        C  0.33687468  0.75332281  0.67913879     0.09800
C714        C  0.31811000  0.70986409  0.58827435    -0.53800
C715        C  0.32127580  0.69074359  0.63649960     0.12700
H716        H  0.23781741  0.77280698  0.60847502     0.14900
H717        H  0.30771115  0.70186762  0.72074181     0.00600
H718        H  0.35864924  0.79706235  0.62357866     0.15200
H719        H  0.32791448  0.69472934  0.55254488     0.14900
C720        C  0.18982423  0.78307900  0.84076301     0.86700
C721        C  0.23095835  0.78309753  0.87138415    -0.53500
C722        C  0.22984995  0.80281721  0.91904156     0.09700
C723        C  0.18811285  0.82126550  0.93215675     0.20600
C724        C  0.15909662  0.76578604  0.88179755    -0.54200
C725        C  0.15926209  0.78562115  0.92924254     0.09800
C726        C  0.17713210  0.82921711  0.83818953    -0.53800
C727        C  0.17392214  0.84829494  0.88639210     0.10300
H728        H  0.25804548  0.76686063  0.85824713     0.14900
H729        H  0.18810552  0.83743685  0.97055367     0.00600
H730        H  0.13755513  0.74171558  0.87385017     0.15200
H731        H  0.16695733  0.84421726  0.80250370     0.14900
C732        C  0.30526387  0.78067872  0.53501688     0.86700
C733        C  0.26394172  0.78121208  0.50472939    -0.53500
C734        C  0.26441158  0.80223895  0.95786668     0.09700
C735        C  0.30570710  0.82112844  0.94514478     0.20600
C736        C  0.33614444  0.76436698  0.99302015    -0.54200
C737        C  0.33544794  0.78561663  0.94632424     0.09800
C738        C  0.31649493  0.82678380  0.53905936    -0.53800
C739        C  0.31953399  0.84686865  0.99180174     0.10300
H740        H  0.23726005  0.76465227  0.51754084     0.14900
H741        H  0.30508170  0.83851501  0.90763499     0.00600
H742        H  0.35789335  0.73989415  0.99996753     0.15200
H743        H  0.32589321  0.84136718  0.57521527     0.14900
O744        O  0.13287669  0.73312822  0.61445692    -0.57600
C745        C  0.02647104  0.70073550  0.56256335     0.75100
O746        O  0.02672121  0.80803340  0.52461759    -0.58700
C747        C  0.13342077  0.75912058  0.65132954     0.75000
C748        C  0.13247334  0.77732193  0.97376111     0.77400
Cd749      Cd  0.08158926  0.76580510  0.56232081     1.37500
O750        O  0.03044122  0.72242530  0.60320190    -0.57600
O751        O  0.11225208  0.74493228  0.47769710    -0.56400
C752        C  0.02441841  0.82904211  0.56618033     0.77400
O753        O  0.12903976  0.80304491  0.51060804    -0.58700
O754        O  0.05007304  0.70736480  0.52444747    -0.57200
O755        O  0.10989025  0.78954024  0.64704233    -0.57200
O756        O  0.05027886  0.82241302  0.60183897    -0.56400
O757        O  0.47015582  0.73163325  0.77497014    -0.57600
C758        C  0.36397031  0.76143937  0.72355138     0.75100
O759        O  0.36374115  0.80587472  0.86473924    -0.58700
C760        C  0.47196529  0.70980350  0.81585679     0.75000
C761        C  0.47105604  0.83724047  0.81285583     0.77400
Cd762      Cd  0.41492852  0.77301382  0.81252084     1.37500
O763        O  0.36837122  0.73517112  0.75961471    -0.57600
O764        O  0.44733893  0.83087510  0.77473586    -0.56400
C765        C  0.36282523  0.77971209  0.90142122     0.77400
O766        O  0.46667261  0.81581456  0.85367058    -0.58700
O767        O  0.38333308  0.79429992  0.72833094    -0.57200
O768        O  0.44566094  0.71564832  0.85117582    -0.57200
O769        O  0.38632486  0.74926336  0.89721831    -0.56400
O770        O  0.62303107  0.88099988  0.82432744    -0.57600
C771        C  0.52537175  0.99014474  0.85574887     0.75100
O772        O  0.54026617  0.92632533  0.70645049    -0.58700
C773        C  0.63700049  0.87238880  0.77894908     0.75000
C774        C  0.50293247  0.86704776  0.80809672     0.77400
Cd775      Cd  0.56371177  0.92518502  0.79224951     1.37500
O776        O  0.56368813  0.98284987  0.85971930    -0.57600
O777        O  0.52703249  0.87529003  0.84549010    -0.56400
C778        C  0.54637858  0.96392698  0.69901168     0.77400
O779        O  0.50814131  0.88493620  0.76477589    -0.58700
O780        O  0.50675865  0.96855422  0.82265987    -0.57200
O781        O  0.62022309  0.89130118  0.74127547    -0.57200
O782        O  0.56883286  0.98272820  0.73159600    -0.56400
O783        O  0.46214758  0.95762144  0.91370311    -0.57600
C784        C  0.34743687  0.88242867  0.48422992     0.75100
O785        O  0.40191471  0.97730072  0.55923774    -0.58700
C786        C  0.46856569  0.99579439  0.92051818     0.75000
C787        C  0.34202723  0.01490386  0.95398485     0.77400
Cd788      Cd  0.39939529  0.95475269  0.47246551     1.37500
O789        O  0.36150702  0.89266853  0.93941575    -0.57600
O790        O  0.35246280  0.99217913  0.91581338    -0.56400
C791        C  0.43901120  0.96686682  0.56359903     0.77400
O792        O  0.35769434  0.00837875  0.49851561    -0.58700
O793        O  0.35984985  0.90324741  0.52272268    -0.57200
O794        O  0.44319475  0.01371174  0.95004589    -0.57200
O795        O  0.45420153  0.94195877  0.53043729    -0.56400
C796        C  0.46559368  0.98930783  0.59979398     0.86700
C797        C  0.49756032  0.96314497  0.62685557    -0.53500
C798        C  0.52331497  0.98486337  0.65799346     0.09700
C799        C  0.51474821  0.03119118  0.65818456     0.20600
C800        C  0.44356509  0.01272280  0.64342514    -0.54200
C801        C  0.46933253  0.03543996  0.67289940     0.09800
C802        C  0.48947072  0.02169116  0.56991632    -0.53800
C803        C  0.51514243  0.04361245  0.60058504     0.10300
H804        H  0.49770558  0.93002442  0.62464997     0.14900
H805        H  0.53580725  0.04906427  0.68327348     0.00600
H806        H  0.41068343  0.01349632  0.64846672     0.15200
H807        H  0.48837203  0.02519434  0.52761421     0.14900
O808        O  0.63276238  0.14478184  0.96149049    -0.57600
C809        C  0.53223290  0.04239527  0.92691886     0.75100
O810        O  0.64262540  0.02767749  0.51579704    -0.58700
C811        C  0.64804375  0.15404951  0.50594847     0.75000
C812        C  0.54653095  0.06737839  0.57546401     0.77400
Cd813      Cd  0.59679094  0.08071646  0.49203448     1.37500
O814        O  0.53959880  0.08067351  0.92434223    -0.57600
O815        O  0.53688237  0.09426069  0.54159757    -0.56400
C816        C  0.65649220  0.02255776  0.96984476     0.77400
O817        O  0.58332644  0.05550512  0.57837993    -0.58700
O818        O  0.55446322  0.02264512  0.95881232    -0.57200
O819        O  0.63749377  0.13156066  0.54387582    -0.57200
O820        O  0.64322018  0.04548070  0.93344443    -0.56400
C821        C  0.50143406  0.02034088  0.89073913    -0.02200
O822        O  0.44023954  0.05944152  0.86040931    -0.57600
C823        C  0.36496146  0.16720981  0.77940655     0.75100
O824        O  0.48578486  0.16629339  0.76742897    -0.58700
C825        C  0.47876231  0.05283717  0.85780542     0.75000
C826        C  0.45488868  0.06520511  0.71072279     0.77400
Cd827      Cd  0.43919612  0.11618281  0.79417005     1.37500
O828        O  0.37484383  0.15260384  0.82414699    -0.57600
O829        O  0.42292988  0.05953240  0.73788623    -0.56400
C830        C  0.49332698  0.17828093  0.81369847     0.77400
O831        O  0.47485697  0.09755812  0.71786892    -0.58700
O832        O  0.38713770  0.15577980  0.74134246    -0.57200
O833        O  0.49810825  0.07633077  0.82767084    -0.57200
O834        O  0.47402968  0.16239835  0.85156731    -0.56400
O835        O  0.13711518  0.64410058  0.69037373    -0.57600
C836        C  0.03058453  0.54078136  0.67197950     0.75100
O837        O  0.14382169  0.53092688  0.75242062    -0.58700
C838        C  0.14978217  0.65584374  0.73525828     0.75000
C839        C  0.05989018  0.56920824  0.81536174     0.77400
Cd840      Cd  0.09947728  0.58227317  0.72462051     1.37500
O841        O  0.03661630  0.57907933  0.66582092    -0.57600
O842        O  0.04477430  0.59447945  0.78257413    -0.56400
C843        C  0.15757823  0.52249621  0.70738152     0.77400
O844        O  0.09694623  0.55866771  0.81093566    -0.58700
O845        O  0.05617608  0.52285782  0.70125189    -0.57200
O846        O  0.13660898  0.63595491  0.77413470    -0.57200
O847        O  0.14534238  0.54349477  0.66842835    -0.56400
O848        O  0.96005019  0.45567237  0.67570289    -0.57600
C849        C  0.84918477  0.38333229  0.75571997     0.75100
O850        O  0.91524640  0.48137540  0.82813253    -0.58700
C851        C  0.96687405  0.49408605  0.67785924     0.75000
C852        C  0.84239468  0.51362604  0.72052377     0.77400
Cd853      Cd  0.90212666  0.45552413  0.74226348     1.37500
O854        O  0.86442080  0.39245052  0.71119966    -0.57600
O855        O  0.85622657  0.49141006  0.68377235    -0.56400
C856        C  0.95191529  0.46903687  0.82609231     0.77400
O857        O  0.85612043  0.50815664  0.76651534    -0.58700
O858        O  0.86079458  0.40514712  0.79379071    -0.57200
O859        O  0.94400545  0.51380359  0.70897479    -0.57200
O860        O  0.96156688  0.44160725  0.79297403    -0.56400
O861        O  0.87504049  0.65434939  0.57496715    -0.57600
C862        C  0.97384203  0.54659914  0.60696086     0.75100
O863        O  0.95762379  0.60991175  0.95682796    -0.58700
C864        C  0.86103027  0.66280547  0.02952621     0.75000
C865        C  0.99514175  0.67033303  0.55808132     0.77400
Cd866      Cd  0.93509869  0.61123778  0.54307323     1.37500
O867        O  0.93552511  0.55385162  0.61084513    -0.57600
O868        O  0.97128284  0.66188563  0.59560608    -0.56400
C869        C  0.95238219  0.57207764  0.95021207     0.77400
O870        O  0.99015005  0.65209861  0.51495826    -0.58700
O871        O  0.99243242  0.56826187  0.57392678    -0.57200
O872        O  0.87811009  0.64415784  0.99190811    -0.57200
O873        O  0.93072979  0.55310191  0.98347311    -0.56400
O874        O  0.12324858  0.38340377  0.57463513    -0.57600
C875        C  0.02015150  0.48373452  0.60885490     0.75100
O876        O  0.02319251  0.43798496  0.96855332    -0.58700
C877        C  0.13227458  0.36784864  0.03014192     0.75000
C878        C  0.00267608  0.35881489  0.56461188     0.77400
Cd879      Cd  0.05841158  0.41946381  0.54530049     1.37500
O880        O  0.05860970  0.47676050  0.61129414    -0.57600
O881        O  0.02214393  0.37429915  0.60265775    -0.56400
C882        C  0.04330917  0.47025622  0.96162100     0.77400
O883        O  0.01082954  0.37042485  0.51839331    -0.58700
O884        O  0.00046984  0.46037707  0.57889108    -0.57200
O885        O  0.10910837  0.37812824  0.99249415    -0.57200
O886        O  0.07512131  0.47584561  0.98911923    -0.56400
C887        C  0.03321912  0.54666739  0.85121072     0.86700
C888        C  0.00150274  0.57290431  0.87853045    -0.53500
C889        C  0.97557123  0.55118352  0.90935261     0.09700
C890        C  0.98376629  0.50479607  0.90907721     0.20600
C891        C  0.05509630  0.52277959  0.89457889    -0.54200
C892        C  0.02914382  0.50010394  0.92378069     0.09800
C893        C  0.00905674  0.51470431  0.82092041    -0.53800
C894        C  0.98327328  0.49275350  0.85136387     0.10300
H895        H  0.00160144  0.60603404  0.87663011     0.14900
H896        H  0.96257089  0.48693202  0.93395414     0.00600
H897        H  0.08797128  0.52176088  0.89971997     0.15200
H898        H  0.01015587  0.51143333  0.77861074     0.14900
C899        C  0.99774348  0.51628334  0.64193409    -0.02200
C900        C  0.80528110  0.25761441  0.86307508     0.86700
C901        C  0.76387175  0.25583405  0.89304161    -0.53500
C902        C  0.76509608  0.23493601  0.94005930     0.09700
C903        C  0.80728102  0.21718118  0.95310706     0.20600
C904        C  0.83513789  0.27479229  0.90558660    -0.54200
C905        C  0.83503630  0.25375225  0.95235842     0.09800
C906        C  0.81887915  0.21194920  0.85923295    -0.53800
C907        C  0.82284123  0.19194329  0.90645299     0.10300
H908        H  0.73658665  0.27192036  0.88020928     0.14900
H909        H  0.80739803  0.19982173  0.99063447     0.00600
H910        H  0.85617069  0.29952379  0.89908686     0.15200
H911        H  0.82875948  0.19744684  0.82318019     0.14900
C912        C  0.69032278  0.25617947  0.55712242     0.86700
C913        C  0.73149485  0.25543007  0.52648450    -0.53500
C914        C  0.73068608  0.23475053  0.97931897     0.09700
C915        C  0.68909690  0.21617452  0.96678025     0.20600
C916        C  0.65941595  0.27284951  0.51522113    -0.54200
C917        C  0.65988459  0.25207243  0.96837665     0.09800
C918        C  0.67863045  0.21016518  0.56093177    -0.53800
C919        C  0.67530124  0.19024393  0.51353761     0.10300
H920        H  0.75829542  0.27189057  0.53911921     0.14900
H921        H  0.68914363  0.19921096  0.92894553     0.00600
H922        H  0.63746651  0.29712649  0.52209191     0.15200
H923        H  0.66930081  0.19548472  0.59703454     0.14900
O924        O  0.53820220  0.32382171  0.79932656    -0.57600
C925        C  0.63416790  0.27769440  0.74738053     0.75100
O926        O  0.62621562  0.23150803  0.89052764    -0.58700
C927        C  0.52552710  0.33437637  0.84420992     0.75000
C928        C  0.52355943  0.20901338  0.82230875     0.77400
Cd929      Cd  0.58156440  0.27014109  0.83483047     1.37500
O930        O  0.62927969  0.30531272  0.78169277    -0.57600
O931        O  0.53960335  0.22676035  0.78368894    -0.56400
C932        C  0.63313496  0.25972226  0.92331397     0.77400
O933        O  0.53525336  0.21873200  0.86792699    -0.58700
O934        O  0.61562224  0.24456026  0.75438935    -0.57200
O935        O  0.54054145  0.31669185  0.88383566    -0.57200
O936        O  0.61675454  0.29409201  0.91466544    -0.56400
C937        C  0.80506333  0.28238785  0.80722294     0.86700
C938        C  0.76382694  0.28347987  0.77654803    -0.53500
C939        C  0.76477120  0.30405633  0.72925738     0.09700
C940        C  0.80659691  0.32210637  0.71667415     0.20600
C941        C  0.83577318  0.26529993  0.76543111    -0.54200
C942        C  0.83541525  0.28586470  0.71844184     0.09800
C943        C  0.81720378  0.32825649  0.81079351    -0.53800
C944        C  0.82083250  0.34797617  0.76331533     0.10300
H945        H  0.73688552  0.26730762  0.78925745     0.14900
H946        H  0.80667050  0.33903047  0.67880578     0.00600
H947        H  0.85760671  0.24095236  0.77248750     0.15200
H948        H  0.82677414  0.34290866  0.84681597     0.14900
C949        C  0.69010661  0.28114776  0.61280839     0.86700
C950        C  0.73155776  0.28315128  0.64279666    -0.53500
C951        C  0.73033549  0.30408584  0.68979583     0.09700
C952        C  0.68805646  0.32176942  0.70268437     0.20600
C953        C  0.66043411  0.26391244  0.65535749    -0.54200
C954        C  0.66050894  0.28503959  0.70202685     0.09800
C955        C  0.67627111  0.32674153  0.60876061    -0.53800
C956        C  0.67228177  0.34687314  0.65588264     0.10300
H957        H  0.75884362  0.26704156  0.63007776     0.14900
H958        H  0.68783263  0.33913340  0.74019976     0.00600
H959        H  0.63956307  0.23900552  0.64896982     0.15200
H960        H  0.66621894  0.34105840  0.57261814     0.14900
O961        O  0.95902063  0.32004444  0.61835280    -0.57600
C962        C  0.86218012  0.27789693  0.67353182     0.75100
O963        O  0.86505689  0.23376966  0.53304555    -0.58700
C964        C  0.97182206  0.32871450  0.57291200     0.75000
C965        C  0.97079572  0.20408495  0.59501346     0.77400
Cd966      Cd  0.91406691  0.26767161  0.58547340     1.37500
O967        O  0.86806141  0.30553917  0.63963932    -0.57600
O968        O  0.96037161  0.22603744  0.63344800    -0.56400
C969        C  0.86159557  0.26085131  0.49769830     0.77400
O970        O  0.95329579  0.21013034  0.55139701    -0.58700
O971        O  0.87977762  0.24392678  0.66623547    -0.57200
O972        O  0.95653916  0.31031814  0.53422899    -0.57200
O973        O  0.88183176  0.29313276  0.50358537    -0.56400
O974        O  0.53293774  0.45776432  0.73763453    -0.57600
C975        C  0.64297573  0.38215790  0.66294088     0.75100
O976        O  0.58969671  0.48207000  0.58619515    -0.58700
C977        C  0.52539183  0.49599174  0.73273398     0.75000
C978        C  0.65185050  0.51418924  0.68786876     0.77400
Cd979      Cd  0.59111979  0.45658487  0.67171845     1.37500
O980        O  0.63415090  0.39733174  0.70759864    -0.57600
O981        O  0.63616955  0.49667748  0.72725161    -0.56400
C982        C  0.55245365  0.47488269  0.57775517     0.77400
O983        O  0.63953337  0.50436674  0.64267836    -0.58700
O984        O  0.62417494  0.39792171  0.62444750    -0.57200
O985        O  0.54730403  0.51441130  0.69975029    -0.57200
O986        O  0.53396292  0.45190756  0.60997087    -0.56400
O987        O  0.62629516  0.65503309  0.82087134    -0.57600
C988        C  0.51910841  0.55285048  0.79711184     0.75100
O989        O  0.53716770  0.61784169  0.93557643    -0.58700
C990        C  0.63454765  0.67057129  0.86559855     0.75000
C991        C  0.50358391  0.68000694  0.82453265     0.77400
Cd992      Cd  0.56111369  0.62126035  0.84960193     1.37500
O993        O  0.55728998  0.55916514  0.79040952    -0.57600
O994        O  0.52852222  0.66906260  0.78901514    -0.56400
C995        C  0.54818717  0.58084549  0.93998803     0.77400
O996        O  0.50719753  0.66461844  0.86980643    -0.58700
O997        O  0.50131245  0.57804015  0.82706965    -0.57200
O998        O  0.61078329  0.66119045  0.90263678    -0.57200
O999        O  0.57349056  0.56605395  0.90708335    -0.56400
O1000       O  0.36030367  0.64445231  0.69259262    -0.57600
C1001       C  0.46232669  0.54231691  0.73344476     0.75100
O1002       O  0.35352610  0.52890136  0.64100945    -0.58700
C1003       C  0.34766016  0.65369505  0.64665078     0.75000
C1004       C  0.44949337  0.56403053  0.58565776     0.77400
Cd1005     Cd  0.39837301  0.57986173  0.66788907     1.37500
O1006       O  0.45524840  0.58081667  0.73533445    -0.57600
O1007       O  0.45468773  0.59628089  0.61247594    -0.56400
C1008       C  0.33902597  0.52278972  0.68635091     0.77400
O1009       O  0.41741637  0.54363326  0.59260957    -0.58700
O1010       O  0.43925661  0.52247656  0.70336731    -0.57200
O1011       O  0.36006830  0.63045554  0.61016685    -0.57200
O1012       O  0.35020013  0.54566503  0.72381186    -0.56400
O1013       O  0.37222062  0.38532231  0.83337383    -0.57600
C1014       C  0.47248100  0.48896113  0.80290667     0.75100
O1015       O  0.46020509  0.43549355  0.95361807    -0.58700
C1016       C  0.36234551  0.36940800  0.87722758     0.75000
C1017       C  0.49428946  0.36496334  0.85078109     0.77400
Cd1018     Cd  0.43428797  0.42355532  0.86746431     1.37500
O1019       O  0.43414173  0.48198549  0.80071054    -0.57600
O1020       O  0.47439464  0.37906171  0.81200928    -0.56400
C1021       C  0.44837470  0.47231673  0.95211513     0.77400
O1022       O  0.48549156  0.37771534  0.89629837    -0.58700
O1023       O  0.49218606  0.46597865  0.83393585    -0.57200
O1024       O  0.38321544  0.38085176  0.91623780    -0.57200
O1025       O  0.42071243  0.48249530  0.91954149    -0.56400
C1026       C  0.52624711  0.55386264  0.97614989     0.86700
C1027       C  0.50191082  0.57579545  0.51894514    -0.53500
C1028       C  0.47958115  0.54979531  0.54845724     0.09700
C1029       C  0.48494766  0.50432737  0.53468301     0.20600
C1030       C  0.55287369  0.52279812  0.50433365    -0.54200
C1031       C  0.53145956  0.49690303  0.53566878     0.09800
C1032       C  0.49480563  0.52890979  0.94610365    -0.53800
C1033       C  0.47306785  0.50319184  0.97687902     0.10300
H1034       H  0.50034698  0.60873483  0.52350267     0.14900
H1035       H  0.46728744  0.48313051  0.55981915     0.00600
H1036       H  0.58597486  0.52346957  0.50282181     0.15200
H1037       H  0.49132897  0.52992259  0.90379810     0.14900
C1038       C  0.49470860  0.51998227  0.76703909    -0.02200
C1039       C  0.26218753  0.21086160  0.72927966     0.86700
C1040       C  0.30816308  0.19837326  0.72477210    -0.53500
C1041       C  0.32849683  0.19485449  0.77192289     0.09700
C1042       C  0.30292092  0.20922532  0.81895305     0.20600
C1043       C  0.24601156  0.18033976  0.77129814    -0.54200
C1044       C  0.26704595  0.18067513  0.81783519     0.09800
C1045       C  0.26303431  0.25217410  0.75971579    -0.53800
C1046       C  0.28411340  0.25109306  0.80663484     0.10300
H1047       H  0.32242800  0.18863872  0.68844873     0.14900
H1048       H  0.32017326  0.20907283  0.85657255     0.00600
H1049       H  0.22163889  0.15886083  0.76475212     0.15200
H1050       H  0.24624008  0.27914403  0.74722021     0.14900
C1051       C  0.26061275  0.32452883  0.92433887     0.86700
C1052       C  0.30650778  0.33629922  0.92971552    -0.53500
C1053       C  0.32715547  0.34052930  0.88306146     0.09700
C1054       C  0.30218584  0.32688129  0.83538475     0.20600
C1055       C  0.24447518  0.35579865  0.88256535    -0.54200
C1056       C  0.26613589  0.35590178  0.83634074     0.09800
C1057       C  0.26201150  0.28366231  0.89308146    -0.53800
C1058       C  0.28350235  0.28506744  0.84657451     0.10300
H1059       H  0.32057144  0.34519132  0.96640472     0.14900
H1060       H  0.31994229  0.32710968  0.79819571     0.00600
H1061       H  0.21956120  0.37709652  0.88901122     0.15200
H1062       H  0.24548507  0.25666009  0.90487311     0.14900
O1063       O  0.29105812  0.05173433  0.90801236    -0.57600
C1064       C  0.25923287  0.15454182  0.86304980     0.75100
O1065       O  0.21001713  0.04630568  0.98599681    -0.58700
C1066       C  0.31218024  0.04685533  0.94908751     0.75000
C1067       C  0.23839917  0.15251832  0.54133399     0.77400
Cd1068     Cd  0.24875050  0.10313271  0.95077490     1.37500
O1069       O  0.28627609  0.14963710  0.89805888    -0.57600
O1070       O  0.27177216  0.13392265  0.53426544    -0.56400
C1071       C  0.18710683  0.04543318  0.94609089     0.77400
O1072       O  0.21114116  0.14823724  0.50656934    -0.58700
O1073       O  0.22585748  0.13639481  0.86934723    -0.57200
O1074       O  0.30541244  0.07000766  0.48778095    -0.57200
O1075       O  0.19130901  0.07275333  0.91166444    -0.56400
C1076       C  0.23647591  0.21051905  0.67442989     0.86700
C1077       C  0.19061776  0.19881803  0.67994755    -0.53500
C1078       C  0.16987496  0.19454975  0.63334975     0.09700
C1079       C  0.19481318  0.20798078  0.58552117     0.20600
C1080       C  0.25253740  0.17913609  0.63288557    -0.54200
C1081       C  0.23086846  0.17891726  0.58668738     0.09800
C1082       C  0.23507323  0.25131331  0.64304245    -0.53800
C1083       C  0.21356291  0.24983606  0.59652645     0.10300
H1084       H  0.17661470  0.19013349  0.71676727     0.14900
H1085       H  0.17705366  0.20761024  0.54830949     0.00600
H1086       H  0.27747429  0.15785984  0.63944560     0.15200
H1087       H  0.25159232  0.27833585  0.65480267     0.14900
C1088       C  0.23499842  0.32423584  0.97937301     0.86700
C1089       C  0.18907856  0.33707902  0.97513120    -0.53500
C1090       C  0.16889348  0.34046834  0.52239149     0.09700
C1091       C  0.19456232  0.32583632  0.56926561     0.20600
C1092       C  0.25152965  0.35447233  0.52158038    -0.54200
C1093       C  0.23068887  0.35410184  0.56824641     0.09800
C1094       C  0.23389640  0.28280738  0.50962507    -0.53800
C1095       C  0.21295224  0.28386292  0.55662356     0.10300
H1096       H  0.17473587  0.34700817  0.93892925     0.14900
H1097       H  0.17744457  0.32601165  0.60695850     0.00600
H1098       H  0.27597740  0.37585254  0.51508512     0.15200
H1099       H  0.25048415  0.25576470  0.99699463     0.14900
O1100       O  0.20365806  0.48131522  0.65907638    -0.57600
C1101       C  0.23884329  0.38008432  0.61364719     0.75100
O1102       O  0.29368024  0.48394249  0.73778771    -0.58700
C1103       C  0.18698437  0.49009652  0.70236123     0.75000
C1104       C  0.25887527  0.38231002  0.79085920     0.77400
Cd1105     Cd  0.24936173  0.43225201  0.70083560     1.37500
O1106       O  0.21173818  0.38544250  0.64847113    -0.57600
O1107       O  0.22547374  0.40081951  0.78332822    -0.56400
C1108       C  0.31036557  0.49048598  0.69390973     0.77400
O1109       O  0.28645961  0.38669813  0.75650315    -0.58700
O1110       O  0.27250631  0.39773895  0.62020621    -0.57200
O1111       O  0.19741167  0.47002518  0.74254028    -0.57200
O1112       O  0.30096682  0.46790018  0.65577413    -0.56400
loop_ 
_geom_bond_atom_site_label_1 
_geom_bond_atom_site_label_2 
_geom_bond_distance 
_geom_bond_site_symmetry_2 
_ccdc_geom_bond_type 
C1            C2   1.562       .  S
C1            C7   1.556       .  S
C1            C5   1.566       .  S
C1           C38   1.631       .  S
C2            H9   1.082       .  S
C2            C3   1.376       .  D
C3            C4   1.532       .  S
C3          C217   1.506       .  S
C4            C8   1.532       .  S
C4            C6   1.512       .  S
C4           H10   1.111       .  S
C5           H11   1.083       .  S
C5            C6   1.374       .  D
C6           C33   1.463       .  S
C7           H12   1.085       .  S
C7            C8   1.375       .  D
C8           C20   1.504       .  S
C13          C14   1.561       .  S
C13          C19   1.562       .  S
C13          C17   1.564       .  S
C13          C50   1.631       .  S
C14          H21   1.082       .  S
C14          C15   1.375       .  D
C15          C16   1.527       .  S
C15         C434   1.498       .  S
C16          C20   1.528       .  S
C16          C18   1.512       .  S
C16          H22   1.111       .  S
C17          H23   1.083       .  S
C17          C18   1.373       .  D
C18          C63   1.463       .  S
C19          H24   1.085       .  S
C19          C20   1.377       .  D
O25          C28   1.268       .  A
O25        Cd586   2.384   1_554  S
C26          O35   1.260       .  A
C26          O31   1.263       .  A
C26          C79   1.440   1_565  S
O27          C33   1.266       .  A
O27         Cd30   2.382       .  S
C28          C43   1.465       .  S
C28         O592   1.262       .  A
C29          O34   1.264       .  A
C29         O588   1.260       .  A
C29         C260   1.440   1_565  S
Cd30         O37   2.483       .  S
Cd30         O36   2.473       .  S
Cd30         O35   2.374       .  S
Cd30         O31   2.444       .  S
Cd30         O34   2.438       .  S
Cd30        O581   2.384       .  S
Cd30        O588   2.373       .  S
O32         C585   1.260       .  A
O32        Cd586   2.373       .  S
C33          O37   1.263       .  A
O36         C584   1.262       .  A
C38          C39   1.560       .  S
C38          C44   1.561       .  S
C38          C42   1.565       .  S
C39          H46   1.082       .  S
C39          C40   1.374       .  D
C40          C41   1.527       .  S
C40          C91   1.497       .  S
C41          C45   1.528       .  S
C41          C43   1.512       .  S
C41          H47   1.111       .  S
C42          H48   1.083       .  S
C42          C43   1.374       .  D
C44          H49   1.084       .  S
C44          C45   1.377       .  D
C45          C57   1.503       .  S
C50          C51   1.562       .  S
C50         C612   1.556       .  S
C50         C610   1.566       .  S
C51          H58   1.082       .  S
C51         C608   1.376       .  D
C52          C53   1.532       .  S
C52         C607   1.376   1_554  D
C52         C864   1.506       .  S
C53          C57   1.531       .  S
C53          C55   1.512       .  S
C53          H59   1.111       .  S
C54         C606   1.566   1_554  S
C54          H60   1.083       .  S
C54          C55   1.375       .  D
C55          C66   1.464       .  S
C56         C606   1.556   1_554  S
C56         H617   1.085   1_554  S
C56          C57   1.374       .  D
H61         C612   1.085       .  S
O62          C65   1.263       .  A
O62         Cd67   2.440       .  S
C63          O72   1.262       .  A
C63          O68   1.268       .  A
O64          C70   1.263       .  A
O64         Cd67   2.439       .  S
C65          O73   1.260       .  A
C65         C422   1.438       .  S
C66          O71   1.266       .  A
C66          O69   1.262       .  A
Cd67         O74   2.378       .  S
Cd67         O73   2.374       .  S
Cd67         O72   2.469       .  S
Cd67         O68   2.382       .  S
Cd67         O71   2.381       .  S
Cd67         O69   2.487       .  S
C70          O74   1.259       .  A
C70         C296   1.440       .  S
O75          C78   1.281       .  A
O75         Cd80   2.546       .  S
C76         C351   1.506       .  S
C76          O85   1.263       .  A
C76          O81   1.273       .  A
O77          C83   1.264       .  A
O77         Cd80   2.330       .  S
C78          O86   1.262       .  A
C78         C695   1.544   1_655  S
C79          O84   1.260       .  A
C79          O82   1.266       .  A
Cd80         O87   2.446       .  S
Cd80         O86   2.478       .  S
Cd80         O85   2.501       .  S
Cd80         O81   2.555       .  S
Cd80         O84   2.360       .  S
Cd80         O82   2.444       .  S
C83         C132   1.459       .  S
C83          O87   1.271       .  A
O88          C91   1.276       .  A
O88         Cd93   2.524       .  S
C89          O98   1.263       .  A
C89          O94   1.283       .  A
C89         C139   1.550   1_665  S
O90          C96   1.267       .  A
O90         Cd93   2.329       .  S
C91          O99   1.263       .  A
C92          O97   1.263       .  A
C92          O95   1.269       .  A
C92         C196   1.436   1_655  S
Cd93        O100   2.370       .  S
Cd93         O99   2.489       .  S
Cd93         O98   2.494       .  S
Cd93         O94   2.542       .  S
Cd93         O97   2.321       .  S
Cd93         O95   2.438       .  S
C96         O100   1.272       .  A
C96         C127   1.470       .  S
O101        C104   1.282       .  A
O101       Cd106   2.548       .  S
C102        C522   1.506       .  S
C102        O111   1.264       .  A
C102        O107   1.274       .  A
O103        C109   1.263       .  A
O103       Cd106   2.358       .  S
C104        O112   1.264       .  A
C104        C139   1.550       .  S
C105        C134   1.447       .  S
C105        O110   1.265       .  A
C105        O108   1.270       .  A
Cd106       O113   2.417       .  S
Cd106       O112   2.509       .  S
Cd106       O111   2.516       .  S
Cd106       O107   2.550       .  S
Cd106       O110   2.391       .  S
Cd106       O108   2.383       .  S
C109        O113   1.266       .  A
C109        C409   1.436   1_455  S
O114        C117   1.275       .  A
O114       Cd119   2.522       .  S
C115        O124   1.262   1_565  A
C115        O120   1.282       .  A
C115        C695   1.543   1_565  S
O116        C122   1.264       .  A
O116       Cd119   2.336   1_545  S
C117        C171   1.507       .  S
C117        O125   1.266       .  A
C118        C129   1.442       .  S
C118        O123   1.265       .  A
C118        O121   1.271       .  A
Cd119       O126   2.418       .  S
Cd119       O125   2.539       .  S
Cd119       O124   2.473   1_565  S
Cd119       O120   2.530       .  S
Cd119       O123   2.336       .  S
Cd119       O121   2.386       .  S
C122        O126   1.269   1_545  A
C122        C515   1.436       .  S
C127        C128   1.525       .  S
C127        C133   1.527   1_565  S
C127        C131   1.517   1_565  S
C128        H135   1.087       .  S
C128        C129   1.356   1_655  D
C129        C130   1.540   1_565  S
C130        C134   1.520       .  S
C130        C132   1.543   1_455  S
C130        H136   1.111       .  S
C131        H137   1.087       .  S
C131        C132   1.366       .  D
C133        H138   1.081   1_655  S
C133        C134   1.357   1_655  D
C139        C634   1.544   1_454  S
C139        C671   1.543   1_544  S
C140        C141   1.559       .  S
C140        C146   1.561       .  S
C140        C144   1.562       .  S
C140        C164   1.628       .  S
C141        H148   1.085       .  S
C141        C142   1.376       .  D
C142        C143   1.530       .  S
C142        C154   1.502       .  S
C143        C147   1.528       .  S
C143        C145   1.512       .  S
C143        H149   1.111       .  S
C144        H150   1.083       .  S
C144        C145   1.376       .  D
C145        C191   1.463       .  S
C146        H151   1.082       .  S
C146        C147   1.373       .  D
C147        C282   1.501       .  S
C152        C153   1.558       .  S
C152        C158   1.567       .  S
C152        C156   1.562       .  S
C152        C176   1.630       .  S
C153        H160   1.085       .  S
C153        C154   1.375       .  D
C154        C155   1.529       .  S
C155        C159   1.531       .  S
C155        C157   1.513       .  S
C155        H161   1.111       .  S
C156        H162   1.083       .  S
C156        C157   1.371       .  D
C157        C202   1.463       .  S
C158        H163   1.083       .  S
C158        C159   1.381       .  D
C159        C447   1.507       .  S
C164        C165   1.558       .  S
C164        C170   1.566       .  S
C164        C168   1.562       .  S
C165        H172   1.085       .  S
C165        C166   1.374       .  D
C166        C167   1.529       .  S
C166        C178   1.503       .  S
C167        C171   1.532       .  S
C167        C169   1.512       .  S
C167        H173   1.111       .  S
C168        H174   1.083       .  S
C168        C169   1.371       .  D
C169        C192   1.461       .  S
C170        H175   1.083       .  S
C170        C171   1.380       .  D
C176        C177   1.559       .  S
C176        C182   1.562       .  S
C176        C736   1.563   1_554  S
C177        H184   1.085       .  S
C177        C734   1.377   1_554  D
C178        C179   1.530       .  S
C178        C733   1.377       .  D
C179        C183   1.527       .  S
C179        C181   1.512       .  S
C179        H185   1.111       .  S
C180        C732   1.563       .  S
C180        H186   1.083       .  S
C180        C181   1.377       .  D
C181        C209   1.465       .  S
C182        H187   1.082       .  S
C182        C739   1.374   1_554  D
C183        C738   1.374       .  D
C183        C784   1.501       .  S
O188        C191   1.267       .  A
O188       Cd193   2.387       .  S
C189        O198   1.261       .  A
C189        O194   1.262       .  A
C189        C309   1.443   1_455  S
O190        C196   1.264       .  A
O190       Cd193   2.455       .  S
C191        O199   1.260       .  A
C192        O753   1.265       .  A
C192        O751   1.261       .  A
Cd193       O200   2.340       .  S
Cd193       O199   2.474       .  S
Cd193       O198   2.388       .  S
Cd193       O194   2.443       .  S
Cd193       O197   2.384       .  S
Cd193       O195   2.470   1_554  S
O195        C748   1.261       .  A
C196        O200   1.259       .  A
O197        C748   1.265   1_554  A
O201        C204   1.263       .  A
O201       Cd206   2.448       .  S
C202        O211   1.262       .  A
C202        O207   1.265       .  A
O203        C209   1.268       .  A
O203       Cd206   2.390       .  S
C204        O212   1.259       .  A
C204        C435   1.435       .  S
C205        O210   1.262       .  A
C205        O208   1.261       .  A
C205        C218   1.443       .  S
Cd206       O213   2.478       .  S
Cd206       O212   2.341       .  S
Cd206       O211   2.475       .  S
Cd206       O207   2.391       .  S
Cd206       O210   2.447       .  S
Cd206       O208   2.385       .  S
C209        O213   1.260       .  A
O214        C217   1.273       .  A
O214       Cd219   2.548       .  S
C215        O224   1.261       .  A
C215        O220   1.281       .  A
C215        C265   1.541   1_565  S
O216        C222   1.265       .  A
O216       Cd219   2.313       .  S
C217        O225   1.264       .  A
C218        O223   1.260       .  A
C218        O221   1.267       .  A
Cd219       O226   2.443       .  S
Cd219       O225   2.513       .  S
Cd219       O224   2.462       .  S
Cd219       O220   2.553       .  S
Cd219       O223   2.366       .  S
Cd219       O221   2.448       .  S
C222        C242   1.456       .  S
C222        O226   1.272       .  A
O227        C230   1.283       .  A
O227       Cd788   2.547       .  S
C228        C739   1.501       .  S
C228        O237   1.263   1_556  A
C228        O789   1.276       .  A
O229        C235   1.266       .  A
O229       Cd232   2.329   1_554  S
C230        O238   1.262   1_565  A
C230        C265   1.550   1_565  S
C231        O234   1.269   1_545  A
C231        O792   1.261       .  A
C231        C510   1.432       .  S
Cd232       O239   2.359   1_556  S
Cd232       O237   2.492   1_556  S
Cd232       O236   2.314   1_565  S
Cd232       O783   2.547       .  S
Cd232       O794   2.486   1_565  S
Cd232       O789   2.538       .  S
Cd232       O790   2.431       .  S
O233        C784   1.276       .  A
O233       Cd788   2.538       .  S
O234       Cd788   2.431       .  S
C235        O239   1.273       .  A
C235        C240   1.470       .  S
O236        C787   1.261       .  A
O238       Cd788   2.486   1_545  S
C240        C241   1.513       .  S
C240        C246   1.528   1_565  S
C240        C244   1.528   1_565  S
C241        H248   1.087       .  S
C241        C242   1.363       .  D
C242        C243   1.542   1_565  S
C243        C247   1.520       .  S
C243        C245   1.542       .  S
C243        H249   1.111       .  S
C244        H250   1.087       .  S
C244        C245   1.357       .  D
C245        C270   1.447       .  S
C246        H251   1.082       .  S
C246        C247   1.358       .  D
C247        C256   1.446       .  S
O252        C811   1.274       .  A
O252       Cd813   2.540       .  S
C253        O262   1.264       .  A
C253        O258   1.282       .  A
C253        C265   1.550       .  S
O254        C816   1.265   1_554  A
O254       Cd257   2.366   1_554  S
C255        C363   1.505       .  S
C255        O263   1.264       .  A
C255        O808   1.274   1_554  A
C256        O261   1.267       .  A
C256        O259   1.270       .  A
Cd257       O263   2.518   1_556  S
Cd257       O261   2.389   1_556  S
Cd257       O259   2.374   1_556  S
Cd257       O808   2.540       .  S
Cd257       O820   2.418       .  S
Cd257       O818   2.513       .  S
Cd257       O814   2.545       .  S
O258       Cd813   2.545       .  S
C260        O264   1.266       .  A
C260        O810   1.265       .  A
O262       Cd813   2.513       .  S
O264       Cd813   2.418       .  S
C265        C269   1.540       .  S
O266        C269   1.282       .  A
O266       Cd271   2.509       .  S
C267        C485   1.506       .  S
C267        O276   1.266       .  A
C267        O272   1.275       .  A
O268        C274   1.266       .  A
O268       Cd271   2.355       .  S
C269        O277   1.262       .  A
C270        O275   1.265       .  A
C270        O273   1.271       .  A
Cd271       O278   2.401       .  S
Cd271       O277   2.473       .  S
Cd271       O276   2.522       .  S
Cd271       O272   2.534       .  S
Cd271       O275   2.345       .  S
Cd271       O273   2.408       .  S
C274        O278   1.267       .  A
C274        C372   1.437       .  S
O279        C282   1.275       .  A
O279       Cd284   2.538       .  S
C280        O289   1.262       .  A
C280        O285   1.282       .  A
C280        C343   1.551   1_455  S
O281        C287   1.261       .  A
O281       Cd284   2.324       .  S
C282        O290   1.263       .  A
C283        O288   1.266       .  A
C283        O286   1.272       .  A
C283        C331   1.468       .  S
Cd284       O291   2.427       .  S
Cd284       O290   2.491       .  S
Cd284       O289   2.493       .  S
Cd284       O285   2.549       .  S
Cd284       O288   2.329       .  S
Cd284       O286   2.354       .  S
C287        O291   1.269       .  A
C287        C547   1.434       .  S
O292        C295   1.282       .  A
O292       Cd297   2.546       .  S
C293        C388   1.505       .  S
C293        O302   1.264       .  A
C293        O298   1.275       .  A
O294        C300   1.267       .  A
O294       Cd297   2.383       .  S
C295        O303   1.264       .  A
C295        C343   1.551       .  S
C296        O301   1.265       .  A
C296        O299   1.267       .  A
Cd297       O304   2.378       .  S
Cd297       O303   2.511       .  S
Cd297       O302   2.515       .  S
Cd297       O298   2.545       .  S
Cd297       O301   2.364       .  S
Cd297       O299   2.414       .  S
C300        C338   1.446       .  S
C300        O304   1.270       .  A
O305        C864   1.273       .  A
O305       Cd310   2.547       .  S
C306        O315   1.261       .  A
C306        O311   1.281       .  A
C306        C343   1.542       .  S
O307        C313   1.265       .  A
O307       Cd866   2.315       .  S
C308        C608   1.506       .  S
C308        O316   1.264       .  A
C308        O861   1.273       .  A
C309        O314   1.260       .  A
C309        O312   1.267       .  A
Cd310       O315   2.467       .  S
Cd310       O311   2.551       .  S
Cd310       O314   2.370       .  S
Cd310       O312   2.447       .  S
Cd310       O863   2.315   1_554  S
Cd310       O873   2.440   1_554  S
Cd310       O872   2.512   1_554  S
C313        C333   1.456       .  S
C313        O317   1.271       .  A
O316       Cd866   2.512       .  S
O317       Cd866   2.440       .  S
O318        C877   1.275       .  A
O318       Cd323   2.535       .  S
C319        O328   1.262       .  A
C319        O324   1.282       .  A
C319        C343   1.540   1_455  S
O320        C326   1.265       .  A
O320       Cd879   2.344       .  S
C321       C1090   1.506       .  S
C321        O329   1.266       .  A
C321        O874   1.275       .  A
C322        O327   1.265       .  A
C322        O325   1.268       .  A
C322        C408   1.436   1_455  S
Cd323       O328   2.469       .  S
Cd323       O324   2.519       .  S
Cd323       O327   2.353       .  S
Cd323       O325   2.402       .  S
Cd323       O876   2.344   1_554  S
Cd323       O886   2.403   1_554  S
Cd323       O885   2.523   1_554  S
C326        C336   1.446       .  S
C326        O330   1.271       .  A
O329       Cd879   2.523       .  S
O330       Cd879   2.403       .  S
C331        C332   1.513       .  S
C331        C337   1.528       .  S
C331        C335   1.527       .  S
C332        H339   1.087       .  S
C332        C333   1.363   1_455  D
C333        C334   1.542       .  S
C334        C338   1.520       .  S
C334        C336   1.541   1_655  S
C334        H340   1.111       .  S
C335        H341   1.087       .  S
C335        C336   1.357       .  D
C337        H342   1.082       .  S
C337        C338   1.358   1_455  D
C344        C345   1.560       .  S
C344        C350   1.561       .  S
C344        C348   1.567       .  S
C344        C381   1.636       .  S
C345        H352   1.085       .  S
C345        C346   1.378       .  D
C346        C347   1.532       .  S
C346        C358   1.508       .  S
C347        C351   1.532       .  S
C347        C349   1.512       .  S
C347        H353   1.111       .  S
C348        H354   1.082       .  S
C348        C349   1.375       .  D
C349        C969   1.465       .  S
C350        H355   1.081       .  S
C350        C351   1.374       .  D
C356        C357   1.560       .  S
C356        C362   1.563       .  S
C356        C360   1.565       .  S
C356        C393   1.636       .  S
C357        H364   1.084       .  S
C357        C914   1.378   1_554  D
C358        C359   1.533       .  S
C358        C913   1.378       .  D
C359        C361   1.511       .  S
C359        C919   1.533       .  S
C359        H365   1.111       .  S
C360        H366   1.082       .  S
C360        C917   1.372   1_554  D
C361        C916   1.372       .  D
C361        C376   1.463       .  S
C362        H367   1.082       .  S
C362        C363   1.376       .  D
C363        C915   1.533   1_554  S
O368        C371   1.262       .  A
O368       Cd373   2.426       .  S
C369        C398   1.463       .  S
C369        O378   1.263       .  A
C369        O374   1.267       .  A
O370        C376   1.267       .  A
O370       Cd373   2.391       .  S
C371        O379   1.260       .  A
C371        C461   1.437       .  S
C372        O377   1.263       .  A
C372        O375   1.259       .  A
Cd373       O380   2.467       .  S
Cd373       O379   2.378       .  S
Cd373       O378   2.474       .  S
Cd373       O374   2.375       .  S
Cd373       O377   2.430       .  S
Cd373       O375   2.376       .  S
C376        O380   1.263       .  A
C381        C382   1.561       .  S
C381        C387   1.562       .  S
C381        C385   1.565       .  S
C382        H389   1.084       .  S
C382        C383   1.379       .  D
C383        C384   1.533       .  S
C383        C395   1.511       .  S
C384        C388   1.533       .  S
C384        C386   1.512       .  S
C384        H390   1.111       .  S
C385        H391   1.082       .  S
C385        C386   1.372       .  D
C386        C406   1.463       .  S
C387        H392   1.082       .  S
C387        C388   1.375       .  D
C393        C394   1.561       .  S
C393        C399   1.561       .  S
C393        C397   1.565       .  S
C394        H401   1.085       .  S
C394        C395   1.379       .  D
C395        C396   1.534       .  S
C396        C400   1.534       .  S
C396        C398   1.512       .  S
C396        H402   1.111       .  S
C397        H403   1.083       .  S
C397        C398   1.374       .  D
C399        H404   1.082       .  S
C399        C400   1.374       .  D
C400        C419   1.508       .  S
O405        C408   1.263       .  A
O405       Cd410   2.423       .  S
C406        O415   1.263       .  A
C406        O411   1.267       .  A
O407        C413   1.267   1_554  A
O407       Cd410   2.373       .  S
C408        O416   1.260       .  A
C409        O414   1.263       .  A
C409        O412   1.259       .  A
Cd410       O417   2.476       .  S
Cd410       O416   2.373       .  S
Cd410       O415   2.472       .  S
Cd410       O411   2.384       .  S
Cd410       O414   2.433       .  S
Cd410       O412   2.370       .  S
C413        C905   1.465       .  S
C413        O417   1.263   1_556  A
O418        C421   1.281       .  A
O418       Cd423   2.541       .  S
C419        O428   1.264       .  A
C419        O424   1.272       .  A
O420        C426   1.265       .  A
O420       Cd423   2.330       .  S
C421        O429   1.262       .  A
C421        C482   1.543       .  S
C422        O427   1.261       .  A
C422        O425   1.266       .  A
Cd423       O430   2.451       .  S
Cd423       O429   2.473       .  S
Cd423       O428   2.506       .  S
Cd423       O424   2.558       .  S
Cd423       O427   2.360       .  S
Cd423       O425   2.437       .  S
C426        C475   1.459       .  S
C426        O430   1.271       .  A
O431        C434   1.276       .  A
O431       Cd436   2.526       .  S
C432        O441   1.263       .  A
C432        O437   1.283       .  A
C432        C482   1.550       .  S
O433        C439   1.267       .  A
O433       Cd436   2.327       .  S
C434        O442   1.263       .  A
C435        O440   1.262       .  A
C435        O438   1.269       .  A
Cd436       O443   2.358       .  S
Cd436       O442   2.495       .  S
Cd436       O441   2.497       .  S
Cd436       O437   2.536       .  S
Cd436       O440   2.317       .  S
Cd436       O438   2.437       .  S
C439        O443   1.272       .  A
C439        C470   1.469       .  S
O444        C447   1.275       .  A
O444       Cd449   2.528       .  S
C445        O454   1.261       .  A
C445        O450   1.282       .  A
C445        C482   1.542       .  S
O446        C452   1.264       .  A
O446       Cd449   2.338       .  S
C447        O455   1.266       .  A
C448        C472   1.442       .  S
C448        O453   1.265       .  A
C448        O451   1.271       .  A
Cd449       O456   2.411       .  S
Cd449       O455   2.538       .  S
Cd449       O454   2.470       .  S
Cd449       O450   2.534       .  S
Cd449       O453   2.335       .  S
Cd449       O451   2.390       .  S
C452        O456   1.269       .  A
C452        C552   1.436       .  S
O457        C460   1.274       .  A
O457       Cd462   2.552       .  S
C458        O467   1.264       .  A
C458        O463   1.282       .  A
C458        C482   1.553       .  S
O459        C465   1.265       .  A
O459       Cd462   2.383       .  S
C460        C497   1.507       .  S
C460        O468   1.264       .  A
C461        O466   1.263       .  A
C461        O464   1.267       .  A
Cd462       O469   2.381       .  S
Cd462       O468   2.520       .  S
Cd462       O467   2.514       .  S
Cd462       O463   2.559       .  S
Cd462       O466   2.360       .  S
Cd462       O464   2.411       .  S
C465        C477   1.446       .  S
C465        O469   1.270       .  A
C470        C476   1.527       .  S
C470       C1027   1.526       .  S
C470       C1030   1.515       .  S
C471       C1026   1.526   1_554  S
C471        H478   1.087       .  S
C471        C472   1.356       .  D
C472        C473   1.540       .  S
C473        C475   1.543       .  S
C473       C1033   1.521   1_554  S
C473        H479   1.111       .  S
C474       C1026   1.515   1_554  S
C474        H480   1.087       .  S
C474        C475   1.364       .  D
C476        H481   1.082       .  S
C476        C477   1.358       .  D
C477       C1029   1.521       .  S
C483        C484   1.563       .  S
C483        C489   1.560       .  S
C483        C487   1.560       .  S
C483        C520   1.630       .  S
C484        H491   1.083       .  S
C484        C485   1.376       .  D
C485        C486   1.533       .  S
C486        C490   1.532       .  S
C486        C488   1.511       .  S
C486        H492   1.111       .  S
C487        H493   1.083       .  S
C487        C488   1.370       .  D
C488        C508   1.458       .  S
C489        H494   1.085       .  S
C489        C490   1.379       .  D
C490        C502   1.507       .  S
C495        C496   1.564       .  S
C495        C501   1.558       .  S
C495        C499   1.565       .  S
C495        C532   1.633       .  S
C496        H503   1.082       .  S
C496        C497   1.374       .  D
C497        C498   1.532       .  S
C498        C502   1.533       .  S
C498        C500   1.511       .  S
C498        H504   1.111       .  S
C499        H505   1.082       .  S
C499        C500   1.374       .  D
C500        C548   1.463       .  S
C501        H506   1.085       .  S
C501        C502   1.378       .  D
O507        C510   1.262       .  A
O507       Cd512   2.430       .  S
C508        O517   1.261       .  A
C508        O513   1.266       .  A
O509        C515   1.263       .  A
O509       Cd512   2.436       .  S
C510       O1074   1.261       .  A
C511        C525   1.462       .  S
C511        O516   1.266       .  A
C511        O514   1.261       .  A
Cd512       O519   2.359       .  S
Cd512       O517   2.454       .  S
Cd512       O513   2.382       .  S
Cd512      O1074   2.341       .  S
Cd512      O1072   2.385       .  S
Cd512      O1070   2.472       .  S
O514      Cd1068   2.472   1_554  S
C515        O519   1.261       .  A
O516      Cd1068   2.385   1_554  S
O518       C1066   1.261       .  A
O518      Cd1068   2.341       .  S
C520        C521   1.563       .  S
C520        C526   1.557       .  S
C520        C524   1.563       .  S
C521        H528   1.082       .  S
C521        C522   1.374       .  D
C522        C523   1.533       .  S
C523        C527   1.535       .  S
C523        C525   1.512       .  S
C523        H529   1.111       .  S
C524        H530   1.083       .  S
C524        C525   1.373       .  D
C526        H531   1.085       .  S
C526        C527   1.378       .  D
C527        C539   1.508       .  S
C532        C533   1.564       .  S
C532       C1094   1.561       .  S
C532       C1092   1.562       .  S
C533        H540   1.082       .  S
C533       C1090   1.377       .  D
C534        C535   1.533       .  S
C534       C1089   1.377   1_554  D
C534        C877   1.506       .  S
C535        C539   1.531       .  S
C535        C537   1.512       .  S
C535        H541   1.111       .  S
C536       C1088   1.562   1_554  S
C536        H542   1.083       .  S
C536        C537   1.370       .  D
C537        C545   1.461       .  S
C538       C1088   1.561   1_554  S
C538       H1099   1.085   1_554  S
C538        C539   1.379       .  D
H543       C1094   1.085       .  S
O544        C547   1.262       .  A
O544       Cd549   2.432       .  S
C545        O554   1.263       .  A
C545        O550   1.267       .  A
O546        C552   1.262       .  A
O546       Cd549   2.432       .  S
C547        O555   1.260       .  A
C548        O553   1.268       .  A
C548        O551   1.262       .  A
Cd549       O556   2.363       .  S
Cd549       O555   2.351       .  S
Cd549       O554   2.459       .  S
Cd549       O550   2.384       .  S
Cd549       O553   2.383       .  S
Cd549       O551   2.468       .  S
C552        O556   1.260       .  A
C557        C558   1.562       .  S
C557        C563   1.556       .  S
C557        C561   1.566       .  S
C557        C594   1.631       .  S
C558        H565   1.082       .  S
C558        C559   1.376       .  D
C559        C560   1.532       .  S
C559        C773   1.506       .  S
C560        C564   1.532       .  S
C560        C562   1.512       .  S
C560        H566   1.111       .  S
C561        H567   1.083       .  S
C561        C562   1.374       .  D
C562        C589   1.463       .  S
C563        H568   1.085       .  S
C563        C564   1.375       .  D
C564        C576   1.504       .  S
C569        C570   1.561       .  S
C569        C575   1.562       .  S
C569        C573   1.564       .  S
C569        C606   1.631       .  S
C570        H577   1.083       .  S
C570        C571   1.375       .  D
C571        C572   1.527       .  S
C571        C990   1.498       .  S
C572        C576   1.528       .  S
C572        C574   1.512       .  S
C572        H578   1.111       .  S
C573        H579   1.083       .  S
C573        C574   1.373       .  D
C574        C619   1.463       .  S
C575        H580   1.085       .  S
C575        C576   1.377       .  D
O581        C584   1.268       .  A
C582        O591   1.260       .  A
C582        O587   1.263       .  A
C582        C635   1.440   1_565  S
O583        C589   1.266       .  A
O583       Cd586   2.382       .  S
C584        C599   1.465       .  S
C585        O590   1.264       .  A
C585        C816   1.440   1_565  S
Cd586       O593   2.483       .  S
Cd586       O592   2.473   1_556  S
Cd586       O591   2.374       .  S
Cd586       O587   2.444       .  S
Cd586       O590   2.438       .  S
C589        O593   1.263       .  A
C594        C595   1.560       .  S
C594        C600   1.561       .  S
C594        C598   1.565       .  S
C595        H602   1.082       .  S
C595        C596   1.374       .  D
C596        C597   1.527       .  S
C596        C647   1.497       .  S
C597        C601   1.528       .  S
C597        C599   1.512       .  S
C597        H603   1.111       .  S
C598        H604   1.083       .  S
C598        C599   1.374       .  D
C600        H605   1.085       .  S
C600        C601   1.377       .  D
C601        C613   1.503       .  S
C606        C607   1.562       .  S
C607        H614   1.082       .  S
C608        C609   1.532       .  S
C609        C613   1.531       .  S
C609        C611   1.512       .  S
C609        H615   1.111       .  S
C610        H616   1.083       .  S
C610        C611   1.375       .  D
C611        C622   1.464       .  S
C612        C613   1.374       .  D
O618        C621   1.263       .  A
O618       Cd623   2.440       .  S
C619        O628   1.262       .  A
C619        O624   1.268       .  A
O620        C626   1.263       .  A
O620       Cd623   2.439       .  S
C621        O629   1.260       .  A
C621        C978   1.438       .  S
C622        O627   1.266       .  A
C622        O625   1.262       .  A
Cd623       O630   2.378       .  S
Cd623       O629   2.374       .  S
Cd623       O628   2.469       .  S
Cd623       O624   2.382       .  S
Cd623       O627   2.381       .  S
Cd623       O625   2.487       .  S
C626        O630   1.259       .  A
C626        C852   1.440       .  S
O631        C634   1.281       .  A
O631       Cd636   2.546       .  S
C632        C907   1.506       .  S
C632        O641   1.263       .  A
C632        O637   1.273       .  A
O633        C639   1.264       .  A
O633       Cd636   2.330       .  S
C634        O642   1.262       .  A
C635        O640   1.260       .  A
C635        O638   1.266       .  A
Cd636       O643   2.446       .  S
Cd636       O642   2.478       .  S
Cd636       O641   2.501       .  S
Cd636       O637   2.555       .  S
Cd636       O640   2.360       .  S
Cd636       O638   2.444       .  S
C639        C688   1.459       .  S
C639        O643   1.271       .  A
O644        C647   1.276       .  A
O644       Cd649   2.524       .  S
C645        O654   1.263       .  A
C645        O650   1.283       .  A
C645        C695   1.550   1_665  S
O646        C652   1.267       .  A
O646       Cd649   2.329       .  S
C647        O655   1.263       .  A
C648        O653   1.263       .  A
C648        O651   1.269       .  A
C648        C752   1.436   1_655  S
Cd649       O656   2.370       .  S
Cd649       O655   2.489       .  S
Cd649       O654   2.494       .  S
Cd649       O650   2.542       .  S
Cd649       O653   2.321       .  S
Cd649       O651   2.438       .  S
C652        O656   1.272       .  A
C652        C683   1.470       .  S
O657        C660   1.282       .  A
O657       Cd662   2.548       .  S
C658       C1078   1.506       .  S
C658        O667   1.264       .  A
C658        O663   1.274       .  A
O659        C665   1.263       .  A
O659       Cd662   2.358       .  S
C660        O668   1.264       .  A
C660        C695   1.550       .  S
C661        C690   1.447       .  S
C661        O666   1.265       .  A
C661        O664   1.270       .  A
Cd662       O669   2.417       .  S
Cd662       O668   2.509       .  S
Cd662       O667   2.516       .  S
Cd662       O663   2.550       .  S
Cd662       O666   2.391       .  S
Cd662       O664   2.383       .  S
C665        O669   1.266       .  A
C665        C965   1.436   1_455  S
O670        C673   1.275       .  A
O670       Cd675   2.522       .  S
C671        O680   1.262   1_565  A
C671        O676   1.282       .  A
O672        C678   1.264       .  A
O672       Cd675   2.336   1_545  S
C673        C727   1.507       .  S
C673        O681   1.266       .  A
C674        C685   1.442       .  S
C674        O679   1.265       .  A
C674        O677   1.271       .  A
Cd675       O682   2.418       .  S
Cd675       O681   2.539       .  S
Cd675       O680   2.473   1_565  S
Cd675       O676   2.530       .  S
Cd675       O679   2.336       .  S
Cd675       O677   2.386       .  S
C678        O682   1.269   1_545  A
C678       C1071   1.436       .  S
C683        C684   1.525       .  S
C683        C689   1.527   1_565  S
C683        C687   1.517   1_565  S
C684        H691   1.087       .  S
C684        C685   1.355   1_655  D
C685        C686   1.540   1_565  S
C686        C690   1.520       .  S
C686        C688   1.543   1_455  S
C686        H692   1.111       .  S
C687        H693   1.087       .  S
C687        C688   1.366       .  D
C689        H694   1.081   1_655  S
C689        C690   1.357   1_655  D
C696        C697   1.559       .  S
C696        C702   1.561       .  S
C696        C700   1.562       .  S
C696        C720   1.628       .  S
C697        H704   1.085       .  S
C697        C698   1.376       .  D
C698        C699   1.530       .  S
C698        C710   1.502       .  S
C699        C703   1.528       .  S
C699        C701   1.512       .  S
C699        H705   1.111       .  S
C700        H706   1.083       .  S
C700        C701   1.376       .  D
C701        C747   1.463       .  S
C702        H707   1.082       .  S
C702        C703   1.373       .  D
C703        C838   1.501       .  S
C708        C709   1.558       .  S
C708        C714   1.567       .  S
C708        C712   1.562       .  S
C708        C732   1.630       .  S
C709        H716   1.085       .  S
C709        C710   1.375       .  D
C710        C711   1.529       .  S
C711        C715   1.531       .  S
C711        C713   1.513       .  S
C711        H717   1.111       .  S
C712        H718   1.083       .  S
C712        C713   1.371       .  D
C713        C758   1.463       .  S
C714        H719   1.083       .  S
C714        C715   1.381       .  D
C715       C1003   1.507       .  S
C720        C721   1.558       .  S
C720        C726   1.566       .  S
C720        C724   1.562       .  S
C721        H728   1.085       .  S
C721        C722   1.374       .  D
C722        C723   1.529       .  S
C722        C734   1.503       .  S
C723        C727   1.532       .  S
C723        C725   1.512       .  S
C723        H729   1.111       .  S
C724        H730   1.083       .  S
C724        C725   1.371       .  D
C725        C748   1.461       .  S
C726        H731   1.083       .  S
C726        C727   1.380       .  D
C732        C733   1.559       .  S
C732        C738   1.562       .  S
C733        H740   1.085       .  S
C734        C735   1.530       .  S
C735        C739   1.527       .  S
C735        C737   1.512       .  S
C735        H741   1.111       .  S
C736        H742   1.083       .  S
C736        C737   1.377       .  D
C737        C765   1.465       .  S
C738        H743   1.082       .  S
O744        C747   1.267       .  A
O744       Cd749   2.387       .  S
C745        O754   1.261       .  A
C745        O750   1.262       .  A
C745        C865   1.443   1_455  S
O746        C752   1.264       .  A
O746       Cd749   2.455       .  S
C747        O755   1.260       .  A
Cd749       O756   2.340       .  S
Cd749       O755   2.474       .  S
Cd749       O754   2.388       .  S
Cd749       O750   2.443       .  S
Cd749       O753   2.384       .  S
Cd749       O751   2.470       .  S
C752        O756   1.259       .  A
O757        C760   1.263       .  A
O757       Cd762   2.448       .  S
C758        O767   1.262       .  A
C758        O763   1.265       .  A
O759        C765   1.268       .  A
O759       Cd762   2.390       .  S
C760        O768   1.259       .  A
C760        C991   1.435       .  S
C761        O766   1.262       .  A
C761        O764   1.261       .  A
C761        C774   1.443       .  S
Cd762       O769   2.478       .  S
Cd762       O768   2.341       .  S
Cd762       O767   2.475       .  S
Cd762       O763   2.391       .  S
Cd762       O766   2.447       .  S
Cd762       O764   2.385       .  S
C765        O769   1.260       .  A
O770        C773   1.273       .  A
O770       Cd775   2.548       .  S
C771        O780   1.261       .  A
C771        O776   1.281       .  A
C771        C821   1.541   1_565  S
O772        C778   1.265       .  A
O772       Cd775   2.313       .  S
C773        O781   1.264       .  A
C774        O779   1.260       .  A
C774        O777   1.267       .  A
Cd775       O782   2.443       .  S
Cd775       O781   2.513       .  S
Cd775       O780   2.462       .  S
Cd775       O776   2.553       .  S
Cd775       O779   2.366       .  S
Cd775       O777   2.448       .  S
C778        C798   1.456       .  S
C778        O782   1.272       .  A
O783        C786   1.283       .  A
C784        O793   1.263       .  A
O785        C791   1.266       .  A
O785       Cd788   2.329       .  S
C786        O794   1.262   1_565  A
C786        C821   1.550   1_565  S
C787        O790   1.269   1_545  A
C787       C1066   1.432       .  S
Cd788       O795   2.359       .  S
Cd788       O793   2.492       .  S
Cd788       O792   2.314   1_565  S
C791        O795   1.273       .  A
C791        C796   1.470       .  S
C796        C797   1.513       .  S
C796        C802   1.528   1_565  S
C796        C800   1.528   1_565  S
C797        H804   1.087       .  S
C797        C798   1.363       .  D
C798        C799   1.542   1_565  S
C799        C803   1.520       .  S
C799        C801   1.542       .  S
C799        H805   1.111       .  S
C800        H806   1.087       .  S
C800        C801   1.357       .  D
C801        C826   1.447       .  S
C802        H807   1.082       .  S
C802        C803   1.358       .  D
C803        C812   1.446       .  S
C809        O818   1.264       .  A
C809        O814   1.282       .  A
C809        C821   1.550       .  S
O810       Cd813   2.366       .  S
C811        C919   1.505       .  S
C811        O819   1.264       .  A
C812        O817   1.267       .  A
C812        O815   1.270       .  A
Cd813       O819   2.518       .  S
Cd813       O817   2.389       .  S
Cd813       O815   2.374       .  S
C816        O820   1.266       .  A
C821        C825   1.540       .  S
O822        C825   1.282       .  A
O822       Cd827   2.509       .  S
C823       C1041   1.506       .  S
C823        O832   1.266       .  A
C823        O828   1.275       .  A
O824        C830   1.266       .  A
O824       Cd827   2.355       .  S
C825        O833   1.262       .  A
C826        O831   1.265       .  A
C826        O829   1.271       .  A
Cd827       O834   2.401       .  S
Cd827       O833   2.473       .  S
Cd827       O832   2.522       .  S
Cd827       O828   2.534       .  S
Cd827       O831   2.345       .  S
Cd827       O829   2.408       .  S
C830        O834   1.267       .  A
C830        C928   1.437       .  S
O835        C838   1.275       .  A
O835       Cd840   2.538       .  S
C836        O845   1.262       .  A
C836        O841   1.282       .  A
C836        C899   1.551   1_455  S
O837        C843   1.261       .  A
O837       Cd840   2.324       .  S
C838        O846   1.263       .  A
C839        O844   1.266       .  A
C839        O842   1.272       .  A
C839        C887   1.468       .  S
Cd840       O847   2.427       .  S
Cd840       O846   2.491       .  S
Cd840       O845   2.493       .  S
Cd840       O841   2.549       .  S
Cd840       O844   2.329       .  S
Cd840       O842   2.354       .  S
C843        O847   1.269       .  A
C843       C1103   1.434       .  S
O848        C851   1.282       .  A
O848       Cd853   2.546       .  S
C849        C944   1.505       .  S
C849        O858   1.264       .  A
C849        O854   1.275       .  A
O850        C856   1.267       .  A
O850       Cd853   2.383       .  S
C851        O859   1.264       .  A
C851        C899   1.551       .  S
C852        O857   1.265       .  A
C852        O855   1.267       .  A
Cd853       O860   2.378       .  S
Cd853       O859   2.511       .  S
Cd853       O858   2.515       .  S
Cd853       O854   2.545       .  S
Cd853       O857   2.364       .  S
Cd853       O855   2.414       .  S
C856        C894   1.446       .  S
C856        O860   1.270       .  A
O861       Cd866   2.547       .  S
C862        O871   1.261       .  A
C862        O867   1.281       .  A
C862        C899   1.542       .  S
O863        C869   1.265       .  A
C864        O872   1.264   1_554  A
C865        O870   1.260       .  A
C865        O868   1.267       .  A
Cd866       O871   2.467       .  S
Cd866       O867   2.551       .  S
Cd866       O870   2.370       .  S
Cd866       O868   2.447       .  S
C869        C889   1.456       .  S
C869        O873   1.271       .  A
O874       Cd879   2.535       .  S
C875        O884   1.262       .  A
C875        O880   1.282       .  A
C875        C899   1.540   1_455  S
O876        C882   1.265       .  A
C877        O885   1.266   1_554  A
C878        O883   1.265       .  A
C878        O881   1.268       .  A
C878        C964   1.436   1_455  S
Cd879       O884   2.469       .  S
Cd879       O880   2.519       .  S
Cd879       O883   2.353       .  S
Cd879       O881   2.402       .  S
C882        C892   1.445       .  S
C882        O886   1.271       .  A
C887        C888   1.513       .  S
C887        C893   1.528       .  S
C887        C891   1.527       .  S
C888        H895   1.087       .  S
C888        C889   1.363   1_455  D
C889        C890   1.542       .  S
C890        C894   1.520       .  S
C890        C892   1.541   1_655  S
C890        H896   1.111       .  S
C891        H897   1.087       .  S
C891        C892   1.357       .  D
C893        H898   1.082       .  S
C893        C894   1.358   1_455  D
C900        C901   1.560       .  S
C900        C906   1.561       .  S
C900        C904   1.567       .  S
C900        C937   1.636       .  S
C901        H908   1.085       .  S
C901        C902   1.378       .  D
C902        C903   1.532       .  S
C902        C914   1.508       .  S
C903        C907   1.532       .  S
C903        C905   1.512       .  S
C903        H909   1.111       .  S
C904        H910   1.082       .  S
C904        C905   1.375       .  D
C906        H911   1.081       .  S
C906        C907   1.374       .  D
C912        C913   1.560       .  S
C912        C918   1.563       .  S
C912        C916   1.565       .  S
C912        C949   1.636       .  S
C913        H920   1.085       .  S
C914        C915   1.533       .  S
C915        C917   1.511       .  S
C915        H921   1.111       .  S
C916        H922   1.082       .  S
C917        C932   1.463       .  S
C918        H923   1.082       .  S
C918        C919   1.376       .  D
O924        C927   1.262       .  A
O924       Cd929   2.426       .  S
C925        C954   1.463       .  S
C925        O934   1.263       .  A
C925        O930   1.267       .  A
O926        C932   1.267       .  A
O926       Cd929   2.391       .  S
C927        O935   1.260       .  A
C927       C1017   1.437       .  S
C928        O933   1.263       .  A
C928        O931   1.259       .  A
Cd929       O936   2.467       .  S
Cd929       O935   2.378       .  S
Cd929       O934   2.474       .  S
Cd929       O930   2.375       .  S
Cd929       O933   2.430       .  S
Cd929       O931   2.376       .  S
C932        O936   1.263       .  A
C937        C938   1.561       .  S
C937        C943   1.562       .  S
C937        C941   1.565       .  S
C938        H945   1.084       .  S
C938        C939   1.379       .  D
C939        C940   1.533       .  S
C939        C951   1.511       .  S
C940        C944   1.533       .  S
C940        C942   1.512       .  S
C940        H946   1.111       .  S
C941        H947   1.082       .  S
C941        C942   1.372       .  D
C942        C962   1.463       .  S
C943        H948   1.082       .  S
C943        C944   1.375       .  D
C949        C950   1.561       .  S
C949        C955   1.561       .  S
C949        C953   1.565       .  S
C950        H957   1.085       .  S
C950        C951   1.379       .  D
C951        C952   1.534       .  S
C952        C956   1.534       .  S
C952        C954   1.512       .  S
C952        H958   1.111       .  S
C953        H959   1.083       .  S
C953        C954   1.374       .  D
C955        H960   1.082       .  S
C955        C956   1.374       .  D
C956        C975   1.508       .  S
O961        C964   1.263       .  A
O961       Cd966   2.423       .  S
C962        O971   1.263       .  A
C962        O967   1.267       .  A
O963        C969   1.267       .  A
O963       Cd966   2.373       .  S
C964        O972   1.260       .  A
C965        O970   1.263       .  A
C965        O968   1.259       .  A
Cd966       O973   2.476       .  S
Cd966       O972   2.373       .  S
Cd966       O971   2.472       .  S
Cd966       O967   2.384       .  S
Cd966       O970   2.433       .  S
Cd966       O968   2.370       .  S
C969        O973   1.263       .  A
O974        C977   1.281       .  A
O974       Cd979   2.541       .  S
C975        O984   1.264       .  A
C975        O980   1.272       .  A
O976        C982   1.265       .  A
O976       Cd979   2.330       .  S
C977        O985   1.262       .  A
C977       C1038   1.543       .  S
C978        O983   1.261       .  A
C978        O981   1.266       .  A
Cd979       O986   2.451       .  S
Cd979       O985   2.473       .  S
Cd979       O984   2.506       .  S
Cd979       O980   2.558       .  S
Cd979       O983   2.360       .  S
Cd979       O981   2.437       .  S
C982       C1031   1.459       .  S
C982        O986   1.271       .  A
O987        C990   1.276       .  A
O987       Cd992   2.526       .  S
C988        O997   1.263       .  A
C988        O993   1.283       .  A
C988       C1038   1.550       .  S
O989        C995   1.267       .  A
O989       Cd992   2.327       .  S
C990        O998   1.263       .  A
C991        O996   1.262       .  A
C991        O994   1.269       .  A
Cd992       O999   2.358       .  S
Cd992       O998   2.495       .  S
Cd992       O997   2.497       .  S
Cd992       O993   2.536       .  S
Cd992       O996   2.317       .  S
Cd992       O994   2.437       .  S
C995        O999   1.272       .  A
C995       C1026   1.469       .  S
O1000      C1003   1.275       .  A
O1000     Cd1005   2.528       .  S
C1001      O1010   1.261       .  A
C1001      O1006   1.282       .  A
C1001      C1038   1.542       .  S
O1002      C1008   1.264       .  A
O1002     Cd1005   2.338       .  S
C1003      O1011   1.266       .  A
C1004      C1028   1.442       .  S
C1004      O1009   1.265       .  A
C1004      O1007   1.271       .  A
Cd1005     O1012   2.411       .  S
Cd1005     O1011   2.538       .  S
Cd1005     O1010   2.470       .  S
Cd1005     O1006   2.534       .  S
Cd1005     O1009   2.335       .  S
Cd1005     O1007   2.390       .  S
C1008      O1012   1.269       .  A
C1008      C1108   1.436       .  S
O1013      C1016   1.274       .  A
O1013     Cd1018   2.552       .  S
C1014      O1023   1.264       .  A
C1014      O1019   1.282       .  A
C1014      C1038   1.553       .  S
O1015      C1021   1.265       .  A
O1015     Cd1018   2.383       .  S
C1016      C1053   1.507       .  S
C1016      O1024   1.264       .  A
C1017      O1022   1.263       .  A
C1017      O1020   1.267       .  A
Cd1018     O1025   2.381       .  S
Cd1018     O1024   2.520       .  S
Cd1018     O1023   2.514       .  S
Cd1018     O1019   2.559       .  S
Cd1018     O1022   2.360       .  S
Cd1018     O1020   2.411       .  S
C1021      C1033   1.446       .  S
C1021      O1025   1.270       .  A
C1026      C1032   1.527       .  S
C1027      H1034   1.087       .  S
C1027      C1028   1.356       .  D
C1028      C1029   1.540       .  S
C1029      C1031   1.543       .  S
C1029      H1035   1.111       .  S
C1030      H1036   1.087       .  S
C1030      C1031   1.364       .  D
C1032      H1037   1.082       .  S
C1032      C1033   1.358       .  D
C1039      C1040   1.563       .  S
C1039      C1045   1.560       .  S
C1039      C1043   1.560       .  S
C1039      C1076   1.630       .  S
C1040      H1047   1.083       .  S
C1040      C1041   1.376       .  D
C1041      C1042   1.533       .  S
C1042      C1046   1.532       .  S
C1042      C1044   1.511       .  S
C1042      H1048   1.111       .  S
C1043      H1049   1.083       .  S
C1043      C1044   1.370       .  D
C1044      C1064   1.458       .  S
C1045      H1050   1.085       .  S
C1045      C1046   1.379       .  D
C1046      C1058   1.507       .  S
C1051      C1052   1.564       .  S
C1051      C1057   1.558       .  S
C1051      C1055   1.565       .  S
C1051      C1088   1.633       .  S
C1052      H1059   1.082       .  S
C1052      C1053   1.374       .  D
C1053      C1054   1.532       .  S
C1054      C1058   1.533       .  S
C1054      C1056   1.511       .  S
C1054      H1060   1.111       .  S
C1055      H1061   1.082       .  S
C1055      C1056   1.374       .  D
C1056      C1104   1.463       .  S
C1057      H1062   1.085       .  S
C1057      C1058   1.378       .  D
O1063      C1066   1.262       .  A
O1063     Cd1068   2.430       .  S
C1064      O1073   1.261       .  A
C1064      O1069   1.266       .  A
O1065      C1071   1.263       .  A
O1065     Cd1068   2.436       .  S
C1067      C1081   1.462       .  S
C1067      O1072   1.266       .  A
C1067      O1070   1.261       .  A
Cd1068     O1075   2.359       .  S
Cd1068     O1073   2.454       .  S
Cd1068     O1069   2.382       .  S
C1071      O1075   1.261       .  A
C1076      C1077   1.563       .  S
C1076      C1082   1.557       .  S
C1076      C1080   1.563       .  S
C1077      H1084   1.082       .  S
C1077      C1078   1.374       .  D
C1078      C1079   1.533       .  S
C1079      C1083   1.535       .  S
C1079      C1081   1.512       .  S
C1079      H1085   1.111       .  S
C1080      H1086   1.083       .  S
C1080      C1081   1.373       .  D
C1082      H1087   1.085       .  S
C1082      C1083   1.378       .  D
C1083      C1095   1.508       .  S
C1088      C1089   1.564       .  S
C1089      H1096   1.082       .  S
C1090      C1091   1.533       .  S
C1091      C1095   1.531       .  S
C1091      C1093   1.512       .  S
C1091      H1097   1.111       .  S
C1092      H1098   1.083       .  S
C1092      C1093   1.370       .  D
C1093      C1101   1.461       .  S
C1094      C1095   1.379       .  D
O1100      C1103   1.262       .  A
O1100     Cd1105   2.432       .  S
C1101      O1110   1.263       .  A
C1101      O1106   1.267       .  A
O1102      C1108   1.262       .  A
O1102     Cd1105   2.432       .  S
C1103      O1111   1.260       .  A
C1104      O1109   1.268       .  A
C1104      O1107   1.262       .  A
Cd1105     O1112   2.363       .  S
Cd1105     O1111   2.351       .  S
Cd1105     O1110   2.459       .  S
Cd1105     O1106   2.384       .  S
Cd1105     O1109   2.383       .  S
Cd1105     O1107   2.468       .  S
C1108      O1112   1.260       .  A
