geometry optimzed in LAMMPS
_audit_creation_date              2020-11-30 
_audit_creation_method            'lammps2cif' 
_symmetry_space_group_name_H-M    'P1' 
_symmetry_Int_Tables_number       1 
_symmetry_cell_setting            triclinic 
loop_ 
_symmetry_equiv_pos_as_xyz 
  x,y,z 
_cell_length_a                    23.22684268 
_cell_length_b                    23.192847029964806 
_cell_length_c                    24.234396182091253 
_cell_angle_alpha                 89.23312569630991 
_cell_angle_beta                  89.58257621220622 
_cell_angle_gamma                 91.40405463227194 
loop_ 
_atom_site_label 
_atom_site_type_symbol 
_atom_site_fract_x 
_atom_site_fract_y 
_atom_site_fract_z 
_atom_site_charge 
O1          O  0.43997564  0.05179267  0.55837048    -0.73200
O2          O  0.43589769  0.94108811  0.44187565    -0.73300
O3          O  0.43466730  0.93514769  0.55559030    -0.73300
O4          O  0.44393542  0.05794243  0.44483872    -0.73400
O5          O  0.53950652  0.05130575  0.44342417    -0.73300
O6          O  0.53058597  0.93449873  0.55745728    -0.73300
O7          O  0.53152713  0.93488993  0.44427734    -0.73300
O8          O  0.53597783  0.05057718  0.55618278    -0.73300
Ni9        Ni  0.43514216  0.99653071  0.50003952     1.25400
Ni10       Ni  0.53771906  0.99264770  0.50035035     1.25400
C11         C  0.48882620  0.06884965  0.57686397     0.88900
C12         C  0.48277246  0.92053233  0.42332620     0.88900
C13         C  0.48164548  0.91655185  0.57642692     0.88900
C14         C  0.49353002  0.07375677  0.42499625     0.89100
O15         O  0.94139458  0.55277885  0.53151245    -0.73200
O16         O  0.05871017  0.44218415  0.55750924    -0.73300
O17         O  0.05707698  0.55936563  0.54511717    -0.73300
O18         O  0.94315002  0.43612492  0.54386389    -0.73400
O19         O  0.95522536  0.42787880  0.45302579    -0.73300
O20         O  0.06977076  0.55132359  0.45431401    -0.73300
O21         O  0.07107081  0.43457198  0.46646906    -0.73300
O22         O  0.95382035  0.54545839  0.44047785    -0.73300
Ni23       Ni  0.99972044  0.49796274  0.54768918     1.25400
Ni24       Ni  0.01294140  0.48947059  0.45033240     1.25400
C25         C  0.92885095  0.56783002  0.48204727     0.88900
C26         C  0.08323024  0.41937245  0.51596319     0.88900
C27         C  0.08148283  0.57640656  0.49989485     0.88900
C28         C  0.93063724  0.41127826  0.49837857     0.89100
O29         O  0.48121346  0.46225930  0.94652925    -0.73200
O30         O  0.59596142  0.46547830  0.06131261    -0.73300
O31         O  0.47834295  0.46479385  0.05934391    -0.73300
O32         O  0.59860646  0.46277187  0.94844195    -0.73400
O33         O  0.59788969  0.55866342  0.94261426    -0.73300
O34         O  0.48164007  0.56085214  0.05826915    -0.73300
O35         O  0.59956456  0.56143208  0.05553932    -0.73300
O36         O  0.48037754  0.55830911  0.94545374    -0.73300
Ni37       Ni  0.53848855  0.46044489  0.00407327     1.25400
Ni38       Ni  0.54001086  0.56318975  0.00042073     1.25400
C39         C  0.46144299  0.50972101  0.92748393     0.88900
C40         C  0.61716224  0.51418677  0.07689071     0.88900
C41         C  0.45992317  0.51295553  0.07701444     0.88900
C42         C  0.61755892  0.51030474  0.92659682     0.89100
O43         O  0.06839167  0.45493682  0.05875152    -0.73200
O44         O  0.08504297  0.56921208  0.94314153    -0.73300
O45         O  0.08081858  0.57130748  0.05661933    -0.73300
O46         O  0.07174646  0.45300731  0.94574888    -0.73400
O47         O  0.97689621  0.46422087  0.94063699    -0.73300
O48         O  0.98509995  0.57628552  0.05646771    -0.73300
O49         O  0.98988714  0.58018020  0.94323146    -0.73300
O50         O  0.97279405  0.46019497  0.05335308    -0.73300
Ni51       Ni  0.07992324  0.51191248  0.00116885     1.25400
Ni52       Ni  0.97781464  0.52061045  0.99835374     1.25400
C53         C  0.01786653  0.43897357  0.07515521     0.88900
C54         C  0.04009023  0.59258030  0.92340611     0.88900
C55         C  0.03408226  0.59156262  0.07634491     0.88900
C56         C  0.02290582  0.44029545  0.92386640     0.89100
O57         O  0.57500033  0.95277072  0.04578215    -0.73200
O58         O  0.46063892  0.06679414  0.05976658    -0.73300
O59         O  0.45881696  0.94930530  0.04558850    -0.73300
O60         O  0.57740542  0.06971729  0.05460967    -0.73400
O61         O  0.57532211  0.07864084  0.96293300    -0.73300
O62         O  0.45788428  0.96084819  0.95406521    -0.73300
O63         O  0.45919946  0.07826374  0.96820382    -0.73300
O64         O  0.57448986  0.96167104  0.95398933    -0.73300
Ni65       Ni  0.51785948  0.00926336  0.05469802     1.25400
Ni66       Ni  0.51651047  0.02026313  0.95655158     1.25400
C67         C  0.59289092  0.93756033  0.99839684     0.88900
C68         C  0.44255339  0.09275020  0.01677404     0.88900
C69         C  0.44042517  0.93422283  0.99772228     0.88900
C70         C  0.59530715  0.09434563  0.00948066     0.89100
O71         O  0.78397445  0.68537971  0.86701465    -0.79700
O72         O  0.78994193  0.72671667  0.62185609    -0.64400
O73         O  0.80392174  0.75105498  0.77789700    -1.11000
C74         C  0.59894948  0.75474892  0.76704359     1.07200
O75         O  0.74131091  0.80415104  0.63084126    -0.77600
O76         O  0.68644840  0.85725390  0.70675013    -0.65200
Ni77       Ni  0.84940749  0.70325502  0.82260585     1.34900
C78         C  0.70926325  0.86976142  0.75208236     0.85900
O79         O  0.88129524  0.74026157  0.69165695    -0.78100
O80         O  0.91588983  0.71958412  0.77651307    -0.88400
C81         C  0.76051909  0.76599944  0.59975956     0.85500
O82         O  0.83526492  0.63126193  0.78973588    -0.66600
O83         O  0.60604193  0.76844742  0.71601171    -0.85900
C84         C  0.81425789  0.61755915  0.74394613     0.86300
C85         C  0.92261394  0.73505510  0.72592887     1.07900
H86         H  0.70239810  0.69685489  0.71145125     0.39700
O87         O  0.71795271  0.73550131  0.71606958    -1.08600
O88         O  0.72509086  0.83251460  0.78708127    -0.65200
Ni89       Ni  0.72249596  0.75015607  0.79264045     1.26300
O90         O  0.79909522  0.65387627  0.70740028    -0.65400
O91         O  0.64019730  0.74888061  0.80150834    -0.77700
C92         C  0.76284304  0.72478855  0.89540590     0.85700
O93         O  0.73182825  0.76135440  0.87125930    -0.64900
Ni94       Ni  0.67389458  0.78557321  0.67207939     1.27400
Ni95       Ni  0.79939258  0.73671020  0.70112181     1.26100
H96         H  0.81933472  0.78980655  0.78205021     0.40300
O97         O  0.20677954  0.61849101  0.72050460    -0.79700
O98         O  0.23497985  0.88184256  0.72533368    -0.64400
O99         O  0.26978204  0.72074007  0.70826048    -1.11000
C100        C  0.27742253  0.72344942  0.90113694     1.07200
O101        O  0.31202067  0.88565207  0.77556810    -0.77600
O102        O  0.37386499  0.79941809  0.80831333    -0.65200
Ni103      Ni  0.22337984  0.67311560  0.66244376     1.34900
C104        C  0.38670795  0.74877241  0.79564836     0.85900
O105        O  0.25293079  0.81390505  0.63674174    -0.78100
O106        O  0.23692235  0.72518527  0.60168436    -0.88400
C107        C  0.27011384  0.91117995  0.75401734     0.85500
O108        O  0.15032302  0.70508980  0.67675757    -0.66600
O109        O  0.29663566  0.77499987  0.89325667    -0.85900
C110        C  0.13459003  0.75158787  0.69809827     0.86300
C111        C  0.24744685  0.77924501  0.59660180     1.07900
H112        H  0.21359989  0.78695722  0.80665281     0.39700
O113        O  0.25176660  0.78303077  0.79125303    -1.08600
O114        O  0.34963947  0.70853510  0.78902559    -0.65200
Ni115      Ni  0.26706881  0.70248444  0.78525470     1.26300
O116        O  0.16928518  0.79047303  0.71451404    -0.65400
O117        O  0.26216356  0.68961402  0.86268620    -0.77700
C118        C  0.24515017  0.59198451  0.74678034     0.85700
O119        O  0.28037441  0.62090591  0.77558745    -0.64900
Ni120      Ni  0.30300608  0.82931931  0.83312747     1.27400
Ni121      Ni  0.25142260  0.80074917  0.71444964     1.26100
H122        H  0.30902868  0.71865963  0.69492792     0.40300
O123        O  0.74309463  0.24988895  0.89279405    -0.79700
O124        O  0.72838358  0.18826351  0.64634552    -0.64400
O125        O  0.78379242  0.20830037  0.79342043    -1.11000
C126        C  0.80694520  0.40326341  0.73198720     1.07200
O127        O  0.80417013  0.23552561  0.61438105    -0.77600
O128        O  0.87868037  0.29248050  0.67600924    -0.65200
Ni129      Ni  0.74115221  0.17853864  0.85494072     1.34900
C130        C  0.90143487  0.27988647  0.72182589     0.85900
O131        O  0.74557570  0.11227606  0.73029464    -0.78100
O132        O  0.73553417  0.10483249  0.82229003    -0.88400
C133        C  0.75880113  0.20606747  0.60580700     0.85500
O134        O  0.66580507  0.19762814  0.83115323    -0.66600
O135        O  0.80503221  0.38160541  0.68404026    -0.85900
C136        C  0.64451210  0.20927703  0.78444696     0.86300
C137        C  0.73591477  0.08288719  0.77445983     1.07900
H138        H  0.72633183  0.29476120  0.71389592     0.39700
O139        O  0.76379797  0.27758269  0.71476468    -1.08600
O140        O  0.87432117  0.27960741  0.76768312    -0.65200
Ni141      Ni  0.79401822  0.29068526  0.78698110     1.26300
O142        O  0.67372399  0.20799940  0.73990882    -0.65400
O143        O  0.80289231  0.37360495  0.77677567    -0.77700
C144        C  0.78658109  0.28187176  0.90184141     0.85700
O145        O  0.81916078  0.29896497  0.86214620    -0.64900
Ni146      Ni  0.80324856  0.30771013  0.65178569     1.27400
Ni147      Ni  0.75406678  0.19556473  0.72104061     1.26100
H148        H  0.82112371  0.19089889  0.79505780     0.40300
O149        O  0.42041493  0.21468394  0.71671860    -0.79700
O150        O  0.14896524  0.22166222  0.70870379    -0.64400
O151        O  0.31030335  0.25411171  0.70000784    -1.11400
C152        C  0.28526963  0.28662399  0.89380335     1.07200
O153        O  0.13312332  0.29539335  0.76296887    -0.77600
O154        O  0.21832855  0.35983076  0.80761998    -0.65200
Ni155      Ni  0.35804193  0.19883417  0.66744603     1.34900
C156        C  0.26047595  0.37848011  0.77799009     0.85900
O157        O  0.22397110  0.23041770  0.62345102    -0.78100
O158        O  0.30282215  0.17848665  0.61203402    -0.88400
C159        C  0.11459918  0.25539823  0.73218917     0.85500
O160        O  0.32978642  0.13910345  0.71545469    -0.66600
O161        O  0.23260309  0.27357063  0.88601098    -0.85900
C162        C  0.27785030  0.12206262  0.72286892     0.86300
C163        C  0.25642198  0.19956741  0.59400812     1.07900
H164        H  0.23891649  0.20425180  0.79659529     0.39700
O165        O  0.23956433  0.24251182  0.78034400    -1.08600
O166        O  0.30149494  0.34715310  0.76218324    -0.65200
Ni167      Ni  0.31845470  0.26778557  0.77798150     1.26300
O168        O  0.23534466  0.15253408  0.70936654    -0.65400
O169        O  0.32372382  0.28560294  0.85593877    -0.77700
C170        C  0.43486603  0.25191542  0.75217780     0.85700
O171        O  0.39888078  0.28667138  0.77224094    -0.64900
Ni172      Ni  0.18598151  0.28408632  0.82261519     1.27400
Ni173      Ni  0.22968296  0.23596084  0.70235580     1.26100
H174        H  0.31616465  0.28977851  0.67943233     0.40300
O175        O  0.73878792  0.81696748  0.36499950    -0.79700
O176        O  0.73222243  0.77669874  0.12212770    -0.64400
O177        O  0.71814556  0.75141898  0.27863933    -1.11000
C178        C  0.92405853  0.75215016  0.26465188     1.07200
O179        O  0.78221717  0.70004389  0.13291563    -0.77600
O180        O  0.84035032  0.64820735  0.20791937    -0.65200
Ni181      Ni  0.67273603  0.79830303  0.32346393     1.34900
C182        C  0.81564791  0.63306342  0.25229686     0.85900
O183        O  0.63953915  0.76272920  0.19372066    -0.78100
O184        O  0.60606658  0.78183841  0.27936328    -0.88400
C185        C  0.76226922  0.73750052  0.10091460     0.85500
O186        O  0.68450516  0.87073594  0.28937155    -0.66600
O187        O  0.91694386  0.74012069  0.21371036    -0.85900
C188        C  0.70465858  0.88584787  0.24305894     0.86300
C189        C  0.59844450  0.76780646  0.22901783     1.07900
H190        H  0.81878488  0.80784457  0.21078680     0.39700
O191        O  0.80392107  0.76881150  0.21569758    -1.08600
O192        O  0.79748263  0.66908725  0.28703567    -0.65200
Ni193      Ni  0.79977202  0.75225732  0.29224903     1.26300
O194        O  0.72098886  0.85041545  0.20661932    -0.65400
O195        O  0.88271644  0.75470709  0.30012789    -0.77700
C196        C  0.75963665  0.77779214  0.39440920     0.85700
O197        O  0.79017570  0.74050857  0.37109407    -0.64900
Ni198      Ni  0.84939041  0.72071155  0.17184171     1.27400
Ni199      Ni  0.72220316  0.76696279  0.20175087     1.26100
H200        H  0.70294109  0.71251745  0.28352779     0.40300
O201        O  0.30300269  0.90479482  0.19390621    -0.79700
O202        O  0.27184393  0.63286125  0.22836022    -0.64400
O203        O  0.25144097  0.79598757  0.20602003    -1.11000
C204        C  0.23883698  0.80369531  0.39492118     1.07200
O205        O  0.22427801  0.62523233  0.30797135    -0.77600
O206        O  0.15391682  0.71555162  0.29155785    -0.65200
Ni207      Ni  0.30593975  0.83285548  0.15722224     1.34900
C208        C  0.13819084  0.76720162  0.28548278     0.85900
O209        O  0.25111087  0.69932662  0.14191268    -0.78100
O210        O  0.31370826  0.76624751  0.11153765    -0.88400
C211        C  0.24800050  0.60269283  0.26649245     0.85500
O212        O  0.36949024  0.81168894  0.20184841    -0.66600
O213        O  0.20125058  0.76603569  0.38246837    -0.85900
C214        C  0.38378541  0.75980268  0.20844656     0.86300
C215        C  0.27974537  0.72359802  0.10337198     1.07900
H216        H  0.30907415  0.72831157  0.30617842     0.39700
O217        O  0.27059288  0.73469546  0.29288222    -1.08600
O218        O  0.17410184  0.80995387  0.28841850    -0.65200
Ni219      Ni  0.25832502  0.81565845  0.28178736     1.26300
O220        O  0.34654421  0.71830273  0.20805115    -0.65400
O221        O  0.26824324  0.83021789  0.35804243    -0.77700
C222        C  0.27751207  0.92744635  0.23437143     0.85700
O223        O  0.24912365  0.89753396  0.26996543    -0.64900
Ni224      Ni  0.21501884  0.69804304  0.34093193     1.27400
Ni225      Ni  0.26269444  0.71481265  0.21713412     1.26100
H226        H  0.21303795  0.80237647  0.19257833     0.40300
O227        O  0.78650437  0.24570401  0.38894197    -0.79700
O228        O  0.80464936  0.31400216  0.14533934    -0.64400
O229        O  0.74653860  0.29393258  0.29275109    -1.11000
C230        C  0.70802567  0.10177069  0.23333967     1.07200
O231        O  0.72409758  0.27406875  0.11631792    -0.77600
O232        O  0.64454548  0.22512825  0.17888379    -0.65200
Ni233      Ni  0.79036611  0.31918736  0.35370280     1.34900
C234        C  0.62344309  0.23658837  0.22561241     0.85900
O235        O  0.79395348  0.38867412  0.22942169    -0.78100
O236        O  0.79862061  0.39418923  0.32189222    -0.88400
C237        C  0.77200422  0.29896511  0.10606228     0.85500
O238        O  0.86422124  0.29789548  0.32895095    -0.66600
O239        O  0.70690274  0.12601229  0.18577992    -0.85900
C240        C  0.88453826  0.28380316  0.28272814     0.86300
C241        C  0.80130625  0.41707718  0.27383459     1.07900
H242        H  0.79649585  0.20481028  0.21195178     0.39700
O243        O  0.76078404  0.22518723  0.21424536    -1.08600
O244        O  0.65050480  0.22969688  0.27069600    -0.65200
Ni245      Ni  0.73041949  0.21219890  0.28727402     1.26300
O246        O  0.85657326  0.28739939  0.23795239    -0.65400
O247        O  0.71681187  0.12947882  0.27795839    -0.77700
C248        C  0.74101158  0.21781623  0.40110342     0.85700
O249        O  0.70595097  0.20368259  0.36327410    -0.64900
Ni250      Ni  0.71689308  0.20081693  0.15311555     1.27400
Ni251      Ni  0.77793031  0.30648968  0.22018402     1.26100
H252        H  0.71061790  0.31400236  0.29449343     0.40300
O253        O  0.03874327  0.05072954  0.43667972    -0.73200
O254        O  0.92291239  0.03421555  0.55013889    -0.73300
O255        O  0.03947147  0.04535038  0.55004623    -0.73300
O256        O  0.92094829  0.03590139  0.43704379    -0.73400
O257        O  0.92932493  0.94062237  0.43569592    -0.73300
O258        O  0.04749237  0.95008704  0.54774715    -0.73300
O259        O  0.93060060  0.93868055  0.55000730    -0.73300
O260        O  0.04764294  0.95529900  0.43506111    -0.73300
Ni261      Ni  0.98021262  0.04481994  0.49334231     1.25400
Ni262      Ni  0.98891334  0.94277615  0.49184815     1.25400
C263        C  0.06319764  0.00614069  0.41788910     0.88900
C264        C  0.90832813  0.98443321  0.56971496     0.88900
C265        C  0.06276745  0.99888362  0.56790163     0.88900
C266        C  0.90513558  0.98642018  0.41805487     0.89100
N267        N  0.25862290  0.02973134  0.26941879    -0.02300
C268        C  0.28728578  0.99056948  0.23888270     0.00300
C269        C  0.33282759  0.01767115  0.21071920    -0.22600
C270        C  0.33331306  0.07434876  0.22491331    -0.22800
C271        C  0.28768195  0.08075964  0.26058830     0.00200
H272        H  0.36368955  0.99795916  0.18359830     0.14000
H273        H  0.36376747  0.10751419  0.21073773     0.14000
O274        O  0.10542331  0.28910862  0.21794020    -0.79700
O275        O  0.37749061  0.30310860  0.21064286    -0.64400
O276        O  0.21878951  0.25715956  0.20044275    -1.11000
C277        C  0.24008150  0.22698504  0.39562539     1.07200
O278        O  0.39349109  0.22865514  0.26541031    -0.77600
O279        O  0.31458248  0.15941577  0.31413759    -0.65200
Ni280      Ni  0.16571110  0.30558956  0.16530333     1.34900
C281        C  0.27594132  0.13741819  0.28347653     0.85900
O282        O  0.30542361  0.28922348  0.12388055    -0.78100
O283        O  0.21871989  0.32578856  0.10737090    -0.88400
C284        C  0.41216769  0.26999304  0.23515990     0.85500
O285        O  0.18844408  0.37074416  0.20656376    -0.66600
O286        O  0.29182387  0.24471592  0.38856521    -0.85900
C287        C  0.23795233  0.39245728  0.21645809     0.86300
C288        C  0.26891838  0.31225231  0.09179875     1.07900
H289        H  0.28194933  0.31290330  0.29677287     0.39700
O290        O  0.28531166  0.27490935  0.28140328    -1.08600
O291        O  0.23366001  0.16525832  0.26494561    -0.65200
Ni292      Ni  0.20926850  0.24243730  0.27838412     1.26300
O293        O  0.28430289  0.36557343  0.20829635    -0.65400
O294        O  0.20323252  0.22413332  0.35676443    -0.77700
C295        C  0.09316461  0.24837976  0.25178921     0.85700
O296        O  0.13138742  0.21571860  0.27136210    -0.64900
Ni297      Ni  0.34047084  0.23748863  0.32546093     1.27400
Ni298      Ni  0.29761516  0.28289733  0.20321125     1.26100
H299        H  0.21738607  0.22109030  0.18093246     0.40300
N300        N  0.98812176  0.27391658  0.25246099    -0.02300
C301        C  0.94178675  0.25787638  0.28351225     0.00300
C302        C  0.95689608  0.21606055  0.32154270    -0.22600
C303        C  0.01453850  0.20603131  0.31366951    -0.22800
C304        C  0.03276018  0.24205272  0.27089871     0.00200
H305        H  0.92909948  0.19574542  0.35230259     0.14000
H306        H  0.04057429  0.17706173  0.33770736     0.14000
N307        N  0.30621512  0.29236007  0.99553927    -0.02300
C308        C  0.29634192  0.31710229  0.94537764     0.00300
C309        C  0.26632848  0.36718155  0.95236119    -0.22600
C310        C  0.25571660  0.37209969  0.00747131    -0.22800
C311        C  0.28232453  0.32694768  0.03371025     0.00200
H312        H  0.24675659  0.39286782  0.92023579     0.14000
H313        H  0.22802902  0.40329981  0.02574898     0.14000
N314        N  0.51710968  0.24703401  0.25046480    -0.02300
C315        C  0.56671936  0.26412111  0.22408071     0.00300
C316        C  0.55554204  0.30629008  0.18491947    -0.22600
C317        C  0.49751391  0.31530875  0.18640380    -0.22800
C318        C  0.47467968  0.27785396  0.22598147     0.00200
H319        H  0.58616755  0.32644312  0.15632115     0.14000
H320        H  0.47419258  0.34401210  0.15951263     0.14000
N321        N  0.71899881  0.99334352  0.25707023    -0.02300
C322        C  0.69914893  0.94656786  0.22831341     0.00300
C323        C  0.65988176  0.96183920  0.18905216    -0.22600
C324        C  0.65534108  0.01996881  0.19204435    -0.22800
C325        C  0.69263142  0.03929834  0.23265793     0.00200
H326        H  0.63597843  0.93339864  0.16196221     0.14000
H327        H  0.62998698  0.04607208  0.16458009     0.14000
N328        N  0.76671033  0.28069477  0.00447091    -0.02300
C329        C  0.79575444  0.30148534  0.95901428     0.00300
C330        C  0.83601923  0.34302224  0.97422696    -0.22600
C331        C  0.83133645  0.34854349  0.03069613    -0.22800
C332        C  0.78884144  0.30969599  0.04811219     0.00200
H333        H  0.86644334  0.36592619  0.94756610     0.14000
H334        H  0.85668810  0.37724049  0.05627502     0.14000
N335        N  0.79720411  0.52388593  0.24316714    -0.02300
C336        C  0.81829545  0.57219827  0.26913353     0.00300
C337        C  0.85135961  0.55796319  0.31380325    -0.22600
C338        C  0.85227103  0.49952723  0.31620474    -0.22800
C339        C  0.81819340  0.47906437  0.27372718     0.00200
H340        H  0.87248340  0.58730587  0.34194330     0.14000
H341        H  0.87329954  0.47428965  0.34775279     0.14000
N342        N  0.76348884  0.22051860  0.50259115    -0.02300
C343        C  0.73256262  0.19961809  0.45923920     0.00300
C344        C  0.69127085  0.15987945  0.47760429    -0.22600
C345        C  0.69664383  0.15628504  0.53420593    -0.22800
C346        C  0.74121312  0.19376377  0.54850251     0.00200
H347        H  0.66024869  0.13648470  0.45276527     0.14000
H348        H  0.67053382  0.12938762  0.56174471     0.14000
N349        N  0.26666812  0.49928290  0.23153647    -0.02300
C350        C  0.24111544  0.53900334  0.26454369     0.00300
C351        C  0.19864071  0.51268414  0.29713878    -0.22600
C352        C  0.19718738  0.45600030  0.28507278    -0.22800
C353        C  0.23809709  0.44831068  0.24468505     0.00200
H354        H  0.16881498  0.53325890  0.32466009     0.14000
H355        H  0.16687590  0.42398816  0.30173754     0.14000
N356        N  0.03330557  0.74933414  0.26006375    -0.02300
C357        C  0.98307967  0.76707321  0.28311773     0.00300
C358        C  0.99419336  0.80668985  0.32399844    -0.22600
C359        C  0.05295208  0.81446210  0.32587703    -0.22800
C360        C  0.07606935  0.77870128  0.28672248     0.00200
H361        H  0.96291131  0.82840719  0.34912849     0.14000
H362        H  0.07647889  0.84129126  0.35465456     0.14000
N363        N  0.29492566  0.72990979  0.00204131    -0.02300
C364        C  0.27138891  0.70298559  0.95827605     0.00300
C365        C  0.23504994  0.65817094  0.97572626    -0.22600
C366        C  0.23666688  0.65742504  0.03252320    -0.22800
C367        C  0.27335570  0.70238883  0.04734186     0.00200
H368        H  0.20756815  0.63150990  0.95035727     0.14000
H369        H  0.21104889  0.62962023  0.05983545     0.14000
N370        N  0.48930722  0.77261577  0.23415129    -0.02300
C371        C  0.53897823  0.75371699  0.21112889     0.00300
C372        C  0.52652219  0.71578199  0.16913422    -0.22600
C373        C  0.46749724  0.71102559  0.16612884    -0.22800
C374        C  0.44557965  0.74647903  0.20609193     0.00200
H375        H  0.55702635  0.69340258  0.14378258     0.14000
H376        H  0.44315316  0.68606605  0.13647344     0.14000
N377        N  0.22822965  0.78213704  0.49553899    -0.02300
C378        C  0.25447344  0.80301999  0.54094637     0.00300
C379        C  0.29191953  0.84818148  0.52728365    -0.22600
C380        C  0.28849690  0.85603431  0.47123743    -0.22800
C381        C  0.24910426  0.81514073  0.45292475     0.00200
H382        H  0.32130921  0.87032659  0.55440698     0.14000
H383        H  0.31416602  0.88612969  0.44635272     0.14000
N384        N  0.75327872  0.75289270  0.99647699    -0.02300
C385        C  0.77962927  0.72656621  0.95372188     0.00300
C386        C  0.82394263  0.69304230  0.97251496    -0.22600
C387        C  0.82424431  0.69740906  0.02832250    -0.22800
C388        C  0.77991693  0.73326255  0.04253621     0.00200
H389        H  0.85181252  0.66622003  0.94835065     0.14000
H390        H  0.85236450  0.67448111  0.05591909     0.14000
N391        N  0.22139996  0.22191036  0.49790966    -0.02300
C392        C  0.22857282  0.19663620  0.44821933     0.00300
C393        C  0.25418347  0.14409506  0.45592954    -0.22600
C394        C  0.26327559  0.13718451  0.51139775    -0.22800
C395        C  0.24199806  0.18524257  0.53659541     0.00200
H396        H  0.27138811  0.11716408  0.42398466     0.14000
H397        H  0.28685677  0.10275135  0.53073598     0.14000
N398        N  0.00825026  0.27562247  0.74593125    -0.02300
C399        C  0.96035754  0.25822028  0.71796743     0.00300
C400        C  0.97446534  0.21980869  0.67723873    -0.22600
C401        C  0.03266288  0.21340914  0.67923207    -0.22800
C402        C  0.05266352  0.24849497  0.72081090     0.00200
H403        H  0.94551060  0.19997430  0.64782258     0.14000
H404        H  0.05799851  0.18746795  0.65185671     0.14000
N405        N  0.24456379  0.01733841  0.73253334    -0.02300
C406        C  0.26680434  0.97416937  0.76444869     0.00300
C407        C  0.30017430  0.99762382  0.80608458    -0.22600
C408        C  0.30142010  0.05582637  0.79852609    -0.22800
C409        C  0.26852609  0.06707245  0.75279814     0.00200
H410        H  0.32519188  0.97447910  0.83630193     0.14000
H411        H  0.32788374  0.08643992  0.82096825     0.14000
N412        N  0.53801805  0.21636591  0.75591919    -0.02300
C413        C  0.58582182  0.23339312  0.78456996     0.00300
C414        C  0.57271254  0.27868577  0.81861574    -0.22600
C415        C  0.51581497  0.29080084  0.81064852    -0.22800
C416        C  0.49541145  0.25269275  0.77176991     0.00200
H417        H  0.60174401  0.30070659  0.84645523     0.14000
H418        H  0.49174716  0.32353125  0.83145311     0.14000
N419        N  0.27538109  0.48757267  0.77029834    -0.02300
C420        C  0.24443027  0.52804557  0.74243963     0.00300
C421        C  0.20616172  0.50116922  0.70687751    -0.22600
C422        C  0.21215054  0.44323461  0.71346573    -0.22800
C423        C  0.25410920  0.43574005  0.75251962     0.00200
H424        H  0.17540081  0.52156657  0.68004358     0.14000
H425        H  0.18625090  0.40985814  0.69407780     0.14000
N426        N  0.73486267  0.97626447  0.74422529    -0.02300
C427        C  0.70879438  0.92938608  0.76922001     0.00300
C428        C  0.67454897  0.94448944  0.81275384    -0.22600
C429        C  0.67814372  0.00279244  0.81525970    -0.22800
C430        C  0.71617319  0.02180242  0.77419175     0.00200
H431        H  0.64944096  0.91593384  0.83972983     0.14000
H432        H  0.65676900  0.02880400  0.84562206     0.14000
N433        N  0.03164489  0.73673554  0.72895066    -0.02300
C434        C  0.98085010  0.75142765  0.70588349     0.00300
C435        C  0.99056610  0.78768665  0.66083174    -0.22600
C436        C  0.04911478  0.79589326  0.65626094    -0.22800
C437        C  0.07317419  0.76350628  0.69769501     0.00200
H438        H  0.95853654  0.80665889  0.63443133     0.14000
H439        H  0.07194888  0.82146193  0.62527895     0.14000
N440        N  0.49003694  0.75915171  0.76429403    -0.02300
C441        C  0.54008069  0.74193462  0.78752954     0.00300
C442        C  0.52884883  0.70700227  0.83321317    -0.22600
C443        C  0.47012599  0.70159006  0.83797736    -0.22800
C444        C  0.44748205  0.73423769  0.79580016     0.00200
H445        H  0.56001265  0.68737104  0.86013520     0.14000
H446        H  0.44638486  0.67868667  0.87034714     0.14000
N447        N  0.79613084  0.50989986  0.75596313    -0.02300
C448        C  0.81813334  0.55756058  0.72856288     0.00300
C449        C  0.85779919  0.54340638  0.68910375    -0.22600
C450        C  0.86100739  0.48522446  0.69108613    -0.22800
C451        C  0.82268473  0.46504805  0.73128658     0.00200
H452        H  0.88295549  0.57259382  0.66268218     0.14000
H453        H  0.88609201  0.45977057  0.66323618     0.14000
N454        N  0.76870154  0.74976648  0.49554723    -0.02300
C455        C  0.74227138  0.76929541  0.54170050     0.00300
C456        C  0.69877239  0.80634370  0.52735839    -0.22600
C457        C  0.69940603  0.81140031  0.47149851    -0.22800
C458        C  0.74299036  0.77705381  0.45287479     0.00200
H459        H  0.67141221  0.83009742  0.55488720     0.14000
H460        H  0.67228829  0.83912496  0.44716263     0.14000
C461        C  0.76544521  0.99265845  0.29751318    -0.04100
C462        C  0.75347470  0.98622936  0.35466502    -0.01300
C463        C  0.79878346  0.97910168  0.39322722     0.03700
C464        C  0.85708019  0.98252108  0.37606995    -0.04100
C465        C  0.86842566  0.98099160  0.31864270    -0.01300
C466        C  0.82314179  0.98717552  0.27981217     0.03700
C467        C  0.69446866  0.98359851  0.37410624     0.38400
C468        C  0.92460446  0.96412699  0.29961263     0.38400
C469        C  0.83508453  0.98492538  0.22116920     0.36800
C470        C  0.78519627  0.95828099  0.44849142     0.36800
N471        N  0.84382928  0.98266641  0.17418633    -0.38000
N472        N  0.77356149  0.93855443  0.49136064    -0.38000
N473        N  0.96833272  0.94784316  0.28375903    -0.37500
N474        N  0.64813868  0.98083996  0.39190708    -0.37500
C475        C  0.11291050  0.01367834  0.37844827    -0.04100
C476        C  0.10537195  0.02917074  0.32242848    -0.01300
C477        C  0.15329506  0.03166832  0.28576701     0.03700
C478        C  0.20909532  0.02044619  0.30515501    -0.04100
C479        C  0.21704731  0.00993409  0.36176484    -0.01300
C480        C  0.16956644  0.00999618  0.39835850     0.03700
C481        C  0.05050439  0.05028658  0.30428626     0.38400
C482        C  0.27469032  0.00282046  0.38274523     0.38400
C483        C  0.17965854  0.02124811  0.45572909     0.36800
C484        C  0.14602513  0.04831564  0.22851040     0.36800
N485        N  0.18784049  0.03550107  0.50047984    -0.38000
N486        N  0.14045918  0.06188697  0.18277475    -0.38000
N487        N  0.32056595  0.99730891  0.39998638    -0.37500
N488        N  0.00763372  0.06947596  0.28960951    -0.37500
C489        C  0.86398681  0.98071786  0.61514943    -0.04100
C490        C  0.80949055  0.00518054  0.60728588    -0.01300
C491        C  0.76548004  0.99721779  0.64731319     0.03700
C492        C  0.77815822  0.97599573  0.70042141    -0.04100
C493        C  0.83350517  0.95372415  0.70978313    -0.01300
C494        C  0.87587074  0.95497832  0.66702769     0.03700
C495        C  0.79923792  0.04063047  0.55888234     0.38400
C496        C  0.84633727  0.92858170  0.76315116     0.38400
C497        C  0.93326509  0.93491058  0.67821173     0.36800
C498        C  0.70623992  0.00181974  0.63063894     0.36800
N499        N  0.97940224  0.92006946  0.68768190    -0.38000
N500        N  0.65938637  0.00250970  0.61484566    -0.38000
N501        N  0.85630226  0.90799481  0.80567379    -0.37500
N502        N  0.79273146  0.06954746  0.52028562    -0.37500
C503        C  0.19912367  0.01294031  0.69148820    -0.04100
C504        C  0.14491272  0.03803031  0.70073105    -0.01300
C505        C  0.10041916  0.03338281  0.66089531     0.03700
C506        C  0.10854457  0.00145742  0.61215705    -0.04100
C507        C  0.16116128  0.97221319  0.60599947    -0.01300
C508        C  0.20733711  0.98194918  0.64285441     0.03700
C509        C  0.13450652  0.06773621  0.75191189     0.38400
C510        C  0.16887369  0.93353733  0.56061169     0.38400
C511        C  0.26484176  0.96425072  0.62911324     0.36800
C512        C  0.04447384  0.05694433  0.67257293     0.36800
N513        N  0.31163334  0.95201832  0.61891922    -0.38000
N514        N  0.99949015  0.07471065  0.68249200    -0.38000
N515        N  0.17503398  0.90466369  0.52270041    -0.37500
N516        N  0.12614039  0.09154407  0.79275161    -0.37500
C517        C  0.33108417  0.78160935  0.00029788    -0.04100
C518        C  0.39034967  0.77772354  0.98919856    -0.01300
C519        C  0.42462355  0.82822964  0.98188741     0.03700
C520        C  0.40140505  0.88268004  0.99241191    -0.04100
C521        C  0.34112396  0.88685315  0.99661677    -0.01300
C522        C  0.30617282  0.83639571  0.00259510     0.03700
C523        C  0.41619289  0.72176708  0.98585224     0.38400
C524        C  0.31475832  0.94085104  0.98277250     0.38400
C525        C  0.24444540  0.84033410  0.00982876     0.36800
C526        C  0.48022973  0.82457907  0.95496022     0.36800
N527        N  0.19515969  0.84326999  0.01603308    -0.38000
N528        N  0.52328536  0.82081639  0.93111322    -0.38000
N529        N  0.29291019  0.98232542  0.96746471    -0.37500
N530        N  0.43806244  0.67756030  0.98404920    -0.37500
C531        C  0.33904002  0.24171281  0.00646551    -0.04100
C532        C  0.31171170  0.18708974  0.01242603    -0.01300
C533        C  0.34499676  0.13797373  0.02273248     0.03700
C534        C  0.40544981  0.14336212  0.02321291    -0.04100
C535        C  0.43094617  0.19864629  0.02847209    -0.01300
C536        C  0.39830588  0.24776699  0.01753329     0.03700
C537        C  0.24961827  0.18199383  0.00952740     0.38400
C538        C  0.48738639  0.20479588  0.05309305     0.38400
C539        C  0.42526494  0.30463487  0.01810737     0.36800
C540        C  0.31769706  0.08562047  0.04415898     0.36800
N541        N  0.44693574  0.35004848  0.01832996    -0.38000
N542        N  0.29570934  0.04566684  0.06515122    -0.38000
N543        N  0.53120223  0.20992095  0.07516125    -0.37500
N544        N  0.19994221  0.17781565  0.00738460    -0.37500
C545        C  0.63408462  0.88976536  0.99603513    -0.04100
C546        C  0.61914868  0.83561155  0.02068527    -0.01300
C547        C  0.65662413  0.78913601  0.01621717     0.03700
C548        C  0.71191777  0.79801554  0.99351679    -0.04100
C549        C  0.72874546  0.85300081  0.97259297    -0.01300
C550        C  0.68952976  0.89855697  0.97271231     0.03700
C551        C  0.56634613  0.82789990  0.05257770     0.38400
C552        C  0.78749945  0.86302077  0.95360469     0.38400
C553        C  0.70821433  0.95568204  0.95401905     0.36800
C554        C  0.63862453  0.73189222  0.03485348     0.36800
N555        N  0.72376697  0.00136586  0.93994490    -0.38000
N556        N  0.62432945  0.68599541  0.04931819    -0.38000
N557        N  0.83462368  0.87062342  0.93889253    -0.37500
N558        N  0.52458264  0.82166819  0.07853142    -0.37500
C559        C  0.72341163  0.23411863  0.00694364    -0.04100
C560        C  0.66802620  0.24234746  0.98526571    -0.01300
C561        C  0.62762653  0.19589485  0.98328318     0.03700
C562        C  0.63909149  0.14267696  0.01001878    -0.04100
C563        C  0.69361795  0.13514410  0.03406706    -0.01300
C564        C  0.73603608  0.18004389  0.03104842     0.03700
C565        C  0.65315958  0.29870454  0.96418412     0.38400
C566        C  0.70764589  0.07971485  0.05814606     0.38400
C567        C  0.79311162  0.17020521  0.05192424     0.36800
C568        C  0.57474330  0.20279114  0.95265385     0.36800
N569        N  0.83858438  0.16141065  0.06863865    -0.38000
N570        N  0.53270790  0.20789292  0.92789780    -0.38000
N571        N  0.71911321  0.03529507  0.07678165    -0.37500
N572        N  0.64127157  0.34367474  0.94722614    -0.37500
C573        C  0.01946533  0.39776578  0.87790877    -0.04100
C574        C  0.03985173  0.34116477  0.88520582    -0.01300
C575        C  0.03279110  0.30002433  0.84295511     0.03700
C576        C  0.01178097  0.31664475  0.79067295    -0.04100
C577        C  0.99645950  0.37434381  0.78181070    -0.01300
C578        C  0.99655823  0.41369519  0.82590515     0.03700
C579        C  0.06828191  0.32501146  0.93601099     0.38400
C580        C  0.98584365  0.39399463  0.72597223     0.38400
C581        C  0.97453805  0.47095265  0.81669038     0.36800
C582        C  0.04725480  0.24046642  0.85321762     0.36800
N583        N  0.95602300  0.51619557  0.80883248    -0.38000
N584        N  0.05877439  0.19294077  0.86181265    -0.38000
N585        N  0.97960844  0.40886100  0.68071159    -0.37500
N586        N  0.09166433  0.31205901  0.97616545    -0.37500
C587        C  0.99034821  0.31749118  0.20940449    -0.04100
C588        C  0.97366791  0.30293914  0.15564912    -0.01300
C589        C  0.98306879  0.34234733  0.11153261     0.03700
C590        C  0.01102538  0.39604304  0.12083872    -0.04100
C591        C  0.03085042  0.40912589  0.17441945    -0.01300
C592        C  0.01726527  0.37144605  0.21909231     0.03700
C593        C  0.94966542  0.24588611  0.14595933     0.38400
C594        C  0.06749187  0.45964391  0.18321123     0.38400
C595        C  0.03312772  0.38634622  0.27494006     0.36800
C596        C  0.96915778  0.32528033  0.05586677     0.36800
N597        N  0.04525434  0.39779383  0.31978637    -0.38000
N598        N  0.95880132  0.31077987  0.01147868    -0.38000
N599        N  0.09733666  0.49956116  0.19008847    -0.37500
N600        N  0.93116165  0.19981223  0.13921003    -0.37500
C601        C  0.03977799  0.70248143  0.77848488    -0.04100
C602        C  0.02728608  0.72558522  0.83072040    -0.01300
C603        C  0.02732774  0.68987795  0.87841544     0.03700
C604        C  0.04548367  0.63236769  0.87492012    -0.04100
C605        C  0.06371835  0.61121753  0.82327210    -0.01300
C606        C  0.05725825  0.64497481  0.77489982     0.03700
C607        C  0.01147803  0.78545512  0.83466549     0.38400
C608        C  0.08716924  0.55404000  0.81923921     0.38400
C609        C  0.06428869  0.61938333  0.72115602     0.36800
C610        C  0.00795436  0.71212913  0.93082994     0.36800
N611        N  0.06914918  0.59876107  0.67819966    -0.38000
N612        N  0.99189472  0.72993595  0.97243316    -0.38000
N613        N  0.10625673  0.50862503  0.81539090    -0.37500
N614        N  0.99849555  0.83316300  0.83782231    -0.37500
C615        C  0.03892662  0.70827213  0.21558356    -0.04100
C616        C  0.06417646  0.72512537  0.16444935    -0.01300
C617        C  0.06481425  0.68632494  0.11968480     0.03700
C618        C  0.03632382  0.63180509  0.12422549    -0.04100
C619        C  0.00985569  0.61570141  0.17521363    -0.01300
C620        C  0.01412439  0.65239922  0.22118189     0.03700
C621        C  0.08656196  0.78353718  0.15690287     0.38400
C622        C  0.97755366  0.56166876  0.18093738     0.38400
C623        C  0.99412016  0.63244865  0.27501896     0.36800
C624        C  0.09225321  0.70387775  0.06805798     0.36800
N625        N  0.97927260  0.61657146  0.31839102    -0.38000
N626        N  0.11419788  0.71831030  0.02696822    -0.38000
N627        N  0.95095329  0.51911000  0.18653803    -0.37500
N628        N  0.10399913  0.83033314  0.15045993    -0.37500
C629        C  0.31403511  0.50793589  0.19208961    -0.04100
C630        C  0.30732986  0.49172193  0.13657834    -0.01300
C631        C  0.35557285  0.49103214  0.10045310     0.03700
C632        C  0.41000814  0.51266131  0.11711124    -0.04100
C633        C  0.41574253  0.53366998  0.17129985    -0.01300
C634        C  0.36855555  0.52971182  0.20904395     0.03700
C635        C  0.24981442  0.48018990  0.11632408     0.38400
C636        C  0.47067526  0.55760612  0.18881766     0.38400
C637        C  0.37637292  0.54722367  0.26564121     0.36800
C638        C  0.35040512  0.46817831  0.04564464     0.36800
N639        N  0.38247383  0.56157300  0.31081915    -0.38000
N640        N  0.35092035  0.45041905  0.00135620    -0.38000
N641        N  0.51449393  0.57688282  0.20289044    -0.37500
N642        N  0.20293265  0.47280160  0.10168274    -0.37500
C643        C  0.66349096  0.51620408  0.11972593    -0.04100
C644        C  0.71847794  0.54027264  0.10668174    -0.01300
C645        C  0.76312286  0.54037782  0.14633725     0.03700
C646        C  0.75231752  0.52106462  0.20121549    -0.04100
C647        C  0.69660483  0.49855878  0.21456410    -0.01300
C648        C  0.65322310  0.49437320  0.17374935     0.03700
C649        C  0.72965637  0.56379558  0.05173263     0.38400
C650        C  0.68348873  0.48032397  0.27074160     0.38400
C651        C  0.59747691  0.46868287  0.18794760     0.36800
C652        C  0.82070193  0.55760774  0.12909008     0.36800
N653        N  0.55315168  0.44800018  0.19967746    -0.38000
N654        N  0.86594563  0.57158943  0.11294686    -0.38000
N655        N  0.67297380  0.46541330  0.31553123    -0.37500
N656        N  0.73835111  0.58264763  0.00792365    -0.37500
C657        C  0.41499028  0.50812029  0.88482205    -0.04100
C658        C  0.36057419  0.53181409  0.89593447    -0.01300
C659        C  0.31392137  0.52200620  0.85973759     0.03700
C660        C  0.32284885  0.49617283  0.80826967    -0.04100
C661        C  0.37835184  0.47637064  0.79508978    -0.01300
C662        C  0.42349290  0.48016695  0.83399534     0.03700
C663        C  0.35173312  0.56385770  0.94596462     0.38400
C664        C  0.38900869  0.45190281  0.74138841     0.38400
C665        C  0.47904790  0.45633825  0.82104356     0.36800
C666        C  0.25568094  0.53269346  0.87759154     0.36800
N667        N  0.52330916  0.43731515  0.81039894    -0.38000
N668        N  0.20879558  0.53908340  0.89219842    -0.38000
N669        N  0.39793998  0.43230414  0.69858865    -0.37500
N670        N  0.34515720  0.58855654  0.98656458    -0.37500
C671        C  0.75070369  0.50806208  0.79807154    -0.04100
C672        C  0.69581462  0.53047209  0.78687891    -0.01300
C673        C  0.65286566  0.53220260  0.82885026     0.03700
C674        C  0.66315359  0.50919278  0.88217234    -0.04100
C675        C  0.71728369  0.48486223  0.89278480    -0.01300
C676        C  0.76100865  0.48562214  0.85152091     0.03700
C677        C  0.68286149  0.55003781  0.73145308     0.38400
C678        C  0.72876027  0.46077897  0.94701059     0.38400
C679        C  0.81753114  0.46545903  0.86500418     0.36800
C680        C  0.59735261  0.55631121  0.81659254     0.36800
N681        N  0.86251549  0.44922683  0.87666527    -0.38000
N682        N  0.55294092  0.57531765  0.80671492    -0.38000
N683        N  0.73753320  0.44177376  0.99044444    -0.37500
N684        N  0.67220784  0.56532626  0.68711784    -0.37500
C685        C  0.19097641  0.73089099  0.49355310    -0.04100
C686        C  0.13410703  0.73213015  0.51393011    -0.01300
C687        C  0.10177964  0.68045746  0.52239208     0.03700
C688        C  0.12106087  0.62833304  0.49986794    -0.04100
C689        C  0.17588588  0.62824782  0.47380609    -0.01300
C690        C  0.21210103  0.67829699  0.47416863     0.03700
C691        C  0.10559513  0.78647004  0.51833113     0.38400
C692        C  0.19541517  0.57715539  0.44653146     0.38400
C693        C  0.27057677  0.67644464  0.45313133     0.36800
C694        C  0.04724050  0.68189415  0.55191215     0.36800
N695        N  0.31720325  0.67527422  0.43608337    -0.38000
N696        N  0.00378936  0.68270856  0.57553493    -0.38000
N697        N  0.21164037  0.53707605  0.42381222    -0.37500
N698        N  0.07958173  0.82834014  0.51898554    -0.37500
C699        C  0.12207336  0.37054447  0.52406335    -0.04100
C700        C  0.09771735  0.31510308  0.53392355    -0.01300
C701        C  0.13082505  0.26613359  0.52497721     0.03700
C702        C  0.18887218  0.27248965  0.50846020    -0.04100
C703        C  0.21505656  0.32767927  0.50505732    -0.01300
C704        C  0.18176073  0.37686907  0.51377819     0.03700
C705        C  0.03910300  0.30861381  0.55438286     0.38400
C706        C  0.27605579  0.33324396  0.49282785     0.38400
C707        C  0.20970744  0.43294695  0.51823020     0.36800
C708        C  0.10522426  0.20887718  0.53130858     0.36800
N709        N  0.23334769  0.47679001  0.52460470    -0.38000
N710        N  0.08517999  0.16293801  0.53615347    -0.38000
N711        N  0.32482033  0.33726429  0.48293049    -0.37500
N712        N  0.99272460  0.30351115  0.57179304    -0.37500
C713        C  0.88738648  0.36211788  0.49868367    -0.04100
C714        C  0.83345998  0.36724576  0.52561560    -0.01300
C715        C  0.79173764  0.32191336  0.52376061     0.03700
C716        C  0.80565911  0.26815724  0.50136966    -0.04100
C717        C  0.86132217  0.26114160  0.47898478    -0.01300
C718        C  0.90046499  0.30883815  0.47407246     0.03700
C719        C  0.82010983  0.41929273  0.55490469     0.38400
C720        C  0.87816300  0.20437264  0.46197327     0.38400
C721        C  0.95511755  0.30232410  0.44575810     0.36800
C722        C  0.73424624  0.33023619  0.54535286     0.36800
N723        N  0.99892694  0.29778166  0.42336087    -0.38000
N724        N  0.68830747  0.33681504  0.56256685    -0.38000
N725        N  0.89126560  0.15868996  0.44897181    -0.37500
N726        N  0.80873779  0.46058856  0.57845978    -0.37500
C727        C  0.80892803  0.70387788  0.49054779    -0.04100
C728        C  0.86726886  0.71665770  0.47891206    -0.01300
C729        C  0.90559611  0.67174536  0.46873353     0.03700
C730        C  0.88640676  0.61379033  0.47413888    -0.04100
C731        C  0.82692137  0.60125998  0.47914627    -0.01300
C732        C  0.78818082  0.64637585  0.48726100     0.03700
C733        C  0.88714868  0.77619468  0.47637249     0.38400
C734        C  0.80524152  0.54318303  0.46981442     0.38400
C735        C  0.72667023  0.63445545  0.48953271     0.36800
C736        C  0.96311584  0.68507654  0.44811318     0.36800
N737        N  0.67747411  0.62523974  0.49066374    -0.38000
N738        N  0.00825261  0.69623279  0.42984513    -0.38000
N739        N  0.78706539  0.49757911  0.46008393    -0.37500
N740        N  0.90286645  0.82386848  0.47441635    -0.37500
C741        C  0.49251282  0.10923890  0.62378646    -0.04100
C742        C  0.53093953  0.15701581  0.61928806    -0.01300
C743        C  0.56137779  0.17295560  0.66629411     0.03700
C744        C  0.53185456  0.16986685  0.71668019    -0.04100
C745        C  0.48996346  0.12494694  0.72383641    -0.01300
C746        C  0.47094352  0.09350614  0.67710759     0.03700
C747        C  0.55012030  0.17918689  0.56600515     0.38400
C748        C  0.46674916  0.11237544  0.77838870     0.38400
C749        C  0.43004069  0.04592866  0.68416112     0.36800
C750        C  0.61246460  0.14003987  0.66869349     0.36800
N751        N  0.39752072  0.00787338  0.69080176    -0.38000
N752        N  0.64937915  0.10785132  0.67125805    -0.38000
N753        N  0.44855183  0.10253574  0.82217597    -0.37500
N754        N  0.56467312  0.19721227  0.52325616    -0.37500
C755        C  0.51040382  0.20363111  0.29403102    -0.04100
C756        C  0.48824420  0.21818225  0.34642465    -0.01300
C757        C  0.47982328  0.17527264  0.38813201     0.03700
C758        C  0.49840336  0.11838339  0.37966438    -0.04100
C759        C  0.52252552  0.10468778  0.32759456    -0.01300
C760        C  0.52437698  0.14601642  0.28415561     0.03700
C761        C  0.47303218  0.27728869  0.35687387     0.38400
C762        C  0.54514220  0.04813749  0.31763648     0.38400
C763        C  0.53593191  0.12861269  0.22804199     0.36800
C764        C  0.45303163  0.19012317  0.44008828     0.36800
N765        N  0.54339764  0.11527786  0.18276568    -0.38000
N766        N  0.43125020  0.20212706  0.48133541    -0.38000
N767        N  0.56375778  0.00356387  0.30790326    -0.37500
N768        N  0.46036425  0.32442245  0.36485260    -0.37500
C769        C  0.48072807  0.88104792  0.37551598    -0.04100
C770        C  0.49899843  0.82368625  0.38096700    -0.01300
C771        C  0.49694458  0.78671489  0.33512177     0.03700
C772        C  0.48424364  0.80881765  0.28207568    -0.04100
C773        C  0.46926963  0.86701880  0.27615581    -0.01300
C774        C  0.46266797  0.90143505  0.32327603     0.03700
C775        C  0.52012325  0.80273001  0.43351737     0.38400
C776        C  0.46431684  0.89232715  0.22146644     0.38400
C777        C  0.43774118  0.95783963  0.31762526     0.36800
C778        C  0.51044751  0.72637476  0.34181831     0.36800
N779        N  0.41730352  0.00260662  0.31287622    -0.38000
N780        N  0.52171438  0.67830469  0.34715637    -0.38000
N781        N  0.46114123  0.91272284  0.17777801    -0.37500
N782        N  0.53779935  0.78610693  0.47516917    -0.37500
C783        C  0.48366283  0.79916589  0.71817558    -0.04100
C784        C  0.50479789  0.85627620  0.72223830    -0.01300
C785        C  0.50544415  0.89368993  0.67575648     0.03700
C786        C  0.48035236  0.87609805  0.62531504    -0.04100
C787        C  0.45621838  0.81958640  0.62209255    -0.01300
C788        C  0.45913290  0.78093834  0.66794000     0.03700
C789        C  0.52478028  0.87675443  0.77513215     0.38400
C790        C  0.43116364  0.79997471  0.57087183     0.38400
C791        C  0.43917185  0.72162393  0.66285321     0.36800
C792        C  0.53294015  0.95008562  0.68049103     0.36800
N793        N  0.42347681  0.67415707  0.65858045    -0.38000
N794        N  0.55591726  0.99440010  0.68604085    -0.38000
N795        N  0.41122618  0.78360106  0.53017724    -0.37500
N796        N  0.53983140  0.89317834  0.81763913    -0.37500
loop_ 
_geom_bond_atom_site_label_1 
_geom_bond_atom_site_label_2 
_geom_bond_distance 
_geom_bond_site_symmetry_2 
_ccdc_geom_bond_type 
O1           Ni9   1.923   1_545  S
O1           C11   1.279       .  A
O2           Ni9   1.921       .  S
O2           C12   1.280       .  A
O3           Ni9   1.946       .  S
O3           C13   1.287       .  A
O4           Ni9   1.947   1_545  S
O4           C14   1.288       .  A
O5          Ni10   1.924   1_545  S
O5           C14   1.280       .  A
O6          Ni10   1.923       .  S
O6           C13   1.281       .  A
O7          Ni10   1.925       .  S
O7           C12   1.283       .  A
O8          Ni10   1.920   1_545  S
O8           C11   1.285       .  A
Ni9         Ni10   2.387       .  S
C11         C741   1.485       .  S
C12         C769   1.487       .  S
C13         C786   1.501       .  S
C14         C758   1.501       .  S
O15         Ni23   1.919       .  S
O15          C25   1.282       .  A
O16         Ni23   1.921   1_455  S
O16          C26   1.280       .  A
O17         Ni23   1.926   1_455  S
O17          C27   1.283       .  A
O18         Ni23   1.925       .  S
O18          C28   1.283       .  A
O19         Ni24   1.935   1_655  S
O19          C28   1.285       .  A
O20         Ni24   1.929       .  S
O20          C27   1.283       .  A
O21         Ni24   1.917       .  S
O21          C26   1.281       .  A
O22         Ni24   1.927   1_655  S
O22          C25   1.281       .  A
Ni23        Ni24   2.388   1_655  S
C25         C730   1.481       .  S
C26         C699   1.477       .  S
C27         C688   1.497       .  S
C28         C713   1.501       .  S
O29         Ni37   1.935   1_556  S
O29          C39   1.284       .  A
O30         Ni37   1.935       .  S
O30          C40   1.284       .  A
O31         Ni37   1.934       .  S
O31          C41   1.284       .  A
O32         Ni37   1.933   1_556  S
O32          C42   1.283       .  A
O33         Ni38   1.940   1_556  S
O33          C42   1.285       .  A
O34         Ni38   1.942       .  S
O34          C41   1.285       .  A
O35         Ni38   1.931       .  S
O35          C40   1.283       .  A
O36         Ni38   1.931   1_556  S
O36          C39   1.282       .  A
Ni37        Ni38   2.383       .  S
C39         C657   1.500       .  S
C40         C643   1.501       .  S
C41         C632   1.507       .  S
C42         C674   1.506       .  S
O43         Ni51   1.922       .  S
O43          C53   1.281       .  A
O44         Ni51   1.923   1_556  S
O44          C54   1.281       .  A
O45         Ni51   1.937       .  S
O45          C55   1.285       .  A
O46         Ni51   1.936   1_556  S
O46          C56   1.285       .  A
O47         Ni52   1.928       .  S
O47          C56   1.282   1_655  A
O48         Ni52   1.929   1_554  S
O48          C55   1.282   1_655  A
O49         Ni52   1.923       .  S
O49          C54   1.283   1_655  A
O50         Ni52   1.922   1_554  S
O50          C53   1.282   1_655  A
Ni51        Ni52   2.387   1_454  S
C53         C590   1.484       .  S
C54         C604   1.487       .  S
C55         C618   1.499       .  S
C56         C573   1.499       .  S
O57         Ni65   1.901   1_565  S
O57          C67   1.276   1_554  A
O58         Ni65   1.911       .  S
O58          C68   1.275       .  A
O59         Ni65   1.945   1_565  S
O59          C69   1.289   1_554  A
O60         Ni65   1.945       .  S
O60          C70   1.289       .  A
O61         Ni66   1.908       .  S
O61          C70   1.277   1_556  A
O62         Ni66   1.915   1_565  S
O62          C69   1.276       .  A
O63         Ni66   1.937       .  S
O63          C68   1.288   1_556  A
O64         Ni66   1.938   1_565  S
O64          C67   1.287       .  A
Ni65        Ni66   2.389   1_554  S
C67         C545   1.483       .  S
C68         C534   1.482       .  S
C69         C520   1.490       .  S
C70         C562   1.495       .  S
O71         Ni77   1.890       .  S
O71          C92   1.258       .  A
O72         Ni95   1.951       .  S
O72          C81   1.268       .  A
O73         Ni77   1.887       .  S
O73         Ni95   1.898       .  S
O73         Ni89   1.922       .  S
O73          H96   0.966       .  S
C74          O91   1.284       .  A
C74          O83   1.281       .  A
C74         C441   1.473       .  S
O75         Ni94   1.889       .  S
O75          C81   1.258       .  A
O76         Ni94   1.890       .  S
O76          C78   1.258       .  A
Ni77         O80   1.926       .  S
Ni77         O82   1.882       .  S
C78          O88   1.265       .  A
C78         C427   1.449       .  S
O79         Ni95   1.914       .  S
O79          C85   1.281       .  A
O80          C85   1.280       .  A
C81         C455   1.474       .  S
O82          C84   1.257       .  A
O83         Ni94   1.926       .  S
C84          O90   1.272       .  A
C84         C448   1.450       .  S
C85         C434   1.473       .  S
H86          O87   0.966       .  S
O87         Ni95   1.923       .  S
O87         Ni89   1.894       .  S
O87         Ni94   1.890       .  S
O88         Ni89   1.913       .  S
Ni89         O93   1.939       .  S
Ni89         O91   1.921       .  S
O90         Ni95   1.925       .  S
C92          O93   1.266       .  A
C92         C385   1.470       .  S
O97        Ni103   1.912       .  S
O97         C118   1.266       .  A
O98        Ni121   1.949       .  S
O98         C107   1.267       .  A
O99        Ni103   1.899       .  S
O99        Ni121   1.922       .  S
O99        Ni115   1.908       .  S
O99         H122   0.967       .  S
C100        O117   1.273       .  A
C100        O109   1.277       .  A
C100        C364   1.462       .  S
O101       Ni120   1.905       .  S
O101        C107   1.264       .  A
O102       Ni120   1.898       .  S
O102        C104   1.260       .  A
Ni103       O106   1.911       .  S
Ni103       O108   1.900       .  S
C104        O114   1.267       .  A
C104        C444   1.459       .  S
O105       Ni121   1.904       .  S
O105        C111   1.275       .  A
O106        C111   1.276       .  A
C107        C406   1.490       .  S
O108        C110   1.263       .  A
O109       Ni120   1.916       .  S
C110        O116   1.265       .  A
C110        C437   1.460       .  S
C111        C378   1.457       .  S
H112        O113   0.966       .  S
O113       Ni121   1.901       .  S
O113       Ni115   1.917       .  S
O113       Ni120   1.893       .  S
O114       Ni115   1.922       .  S
Ni115       O119   1.942       .  S
Ni115       O117   1.898       .  S
O116       Ni121   1.917       .  S
C118        O119   1.265       .  A
C118        C420   1.488       .  S
O123       Ni129   1.903       .  S
O123        C144   1.261       .  A
O124       Ni147   1.918       .  S
O124        C133   1.265       .  A
O125       Ni129   1.897       .  S
O125       Ni147   1.914       .  S
O125       Ni141   1.924       .  S
O125        H148   0.966       .  S
C126        O143   1.279       .  A
C126        O135   1.273       .  A
C126        C451   1.470       .  S
O127       Ni146   1.915       .  S
O127        C133   1.262       .  A
O128       Ni146   1.892       .  S
O128        C130   1.267       .  A
Ni129       O132   1.895       .  S
Ni129       O134   1.907       .  S
C130        O140   1.273       .  A
C130        C399   1.472       .  S
O131       Ni147   1.947       .  S
O131        C137   1.277       .  A
O132        C137   1.272       .  A
C133        C346   1.480       .  S
O134        C136   1.267       .  A
O135       Ni146   1.893       .  S
C136        O142   1.272       .  A
C136        C413   1.486       .  S
C137        C430   1.478       .  S
H138        O139   0.966       .  S
O139       Ni147   1.914       .  S
O139       Ni141   1.916       .  S
O139       Ni146   1.891       .  S
O140       Ni141   1.944       .  S
Ni141       O145   1.928       .  S
Ni141       O143   1.941       .  S
O142       Ni147   1.947       .  S
C144        O145   1.273       .  A
C144        C329   1.479       .  S
O149       Ni155   1.916       .  S
O149        C170   1.268       .  A
O150       Ni173   1.901       .  S
O150        C159   1.269       .  A
O151       Ni155   1.892       .  S
O151       Ni173   1.909       .  S
O151       Ni167   1.930       .  S
O151        H174   0.966       .  S
C152        O169   1.277       .  A
C152        O161   1.269       .  A
C152        C308   1.465       .  S
O153       Ni172   1.923       .  S
O153        C159   1.267       .  A
O154       Ni172   1.923       .  S
O154        C156   1.273       .  A
Ni155       O158   1.919       .  S
Ni155       O160   1.899       .  S
C156        O166   1.272       .  A
C156        C423   1.468       .  S
O157       Ni173   1.924       .  S
O157        C163   1.273       .  A
O158        C163   1.272       .  A
C159        C402   1.472       .  S
O160        C162   1.271       .  A
O161       Ni172   1.903       .  S
C162        O168   1.270       .  A
C162        C409   1.469       .  S
C163        C395   1.474       .  S
H164        O165   0.966       .  S
O165       Ni173   1.913       .  S
O165       Ni167   1.910       .  S
O165       Ni172   1.896       .  S
O166       Ni167   1.926       .  S
Ni167       O171   1.912       .  S
Ni167       O169   1.943       .  S
O168       Ni173   1.948       .  S
C170        O171   1.274       .  A
C170        C416   1.487       .  S
O175       Ni181   1.886       .  S
O175        C196   1.256       .  A
O176       Ni199   1.951       .  S
O176        C185   1.271       .  A
O177       Ni181   1.883       .  S
O177       Ni199   1.894       .  S
O177       Ni193   1.926       .  S
O177        H200   0.966       .  S
C178        O195   1.287       .  A
C178        O187   1.280       .  A
C178        C357   1.480       .  S
O179       Ni198   1.884       .  S
O179        C185   1.256       .  A
O180       Ni198   1.891       .  S
O180        C182   1.257       .  A
Ni181       O184   1.921       .  S
Ni181       O186   1.875       .  S
C182        O192   1.271       .  A
C182        C336   1.467       .  S
O183       Ni199   1.932       .  S
O183        C189   1.286       .  A
O184        C189   1.279       .  A
C185        C388   1.475       .  S
O186        C188   1.255       .  A
O187       Ni198   1.922       .  S
C188        O194   1.276       .  A
C188        C322   1.457       .  S
C189        C371   1.481       .  S
H190        O191   0.966       .  S
O191       Ni199   1.930       .  S
O191       Ni193   1.891       .  S
O191       Ni198   1.887       .  S
O192       Ni193   1.934       .  S
Ni193       O197   1.937       .  S
Ni193       O195   1.937       .  S
O194       Ni199   1.942       .  S
C196        O197   1.268       .  A
C196        C458   1.466       .  S
O201       Ni207   1.903       .  S
O201        C222   1.268       .  A
O202       Ni225   1.934       .  S
O202        C211   1.267       .  A
O203       Ni207   1.905       .  S
O203       Ni225   1.923       .  S
O203       Ni219   1.905       .  S
O203        H226   0.966       .  S
C204        O221   1.265       .  A
C204        O213   1.261       .  A
C204        C381   1.454       .  S
O205       Ni224   1.894       .  S
O205        C211   1.268       .  A
O206       Ni224   1.911       .  S
O206        C208   1.268       .  A
Ni207       O210   1.924       .  S
Ni207       O212   1.906       .  S
C208        O218   1.283       .  A
C208        C360   1.474       .  S
O209       Ni225   1.883       .  S
O209        C215   1.261       .  A
O210        C215   1.269       .  A
C211        C350   1.483       .  S
O212        C214   1.265       .  A
O213       Ni224   1.914       .  S
C214        O220   1.278       .  A
C214        C374   1.476       .  S
C215        C367   1.458       .  S
H216        O217   0.966       .  S
O217       Ni225   1.908       .  S
O217       Ni219   1.922       .  S
O217       Ni224   1.909       .  S
O218       Ni219   1.963       .  S
Ni219       O223   1.934       .  S
Ni219       O221   1.898       .  S
O220       Ni225   1.958       .  S
C222        O223   1.270       .  A
C222        C268   1.482       .  S
O227       Ni233   1.896       .  S
O227        C248   1.256       .  A
O228       Ni251   1.917       .  S
O228        C237   1.268       .  A
O229       Ni233   1.891       .  S
O229       Ni251   1.915       .  S
O229       Ni245   1.930       .  S
O229        H252   0.966       .  S
C230        O247   1.280       .  A
C230        O239   1.276       .  A
C230        C325   1.484       .  S
O231       Ni250   1.911       .  S
O231        C237   1.263       .  A
O232       Ni250   1.890       .  S
O232        C234   1.265       .  A
Ni233       O236   1.898       .  S
Ni233       O238   1.892       .  S
C234        O244   1.275       .  A
C234        C315   1.479       .  S
O235       Ni251   1.949       .  S
O235        C241   1.280       .  A
O236        C241   1.274       .  A
C237        C332   1.471       .  S
O238        C240   1.263       .  A
O239       Ni250   1.906       .  S
C240        O246   1.272       .  A
C240        C301   1.473       .  S
C241        C339   1.481       .  S
H242        O243   0.966       .  S
O243       Ni251   1.925       .  S
O243       Ni245   1.918       .  S
O243       Ni250   1.889       .  S
O244       Ni245   1.953       .  S
Ni245       O249   1.930       .  S
Ni245       O247   1.953       .  S
O246       Ni251   1.940       .  S
C248        O249   1.272       .  A
C248        C343   1.476       .  S
O253       Ni261   1.926   1_455  S
O253        C263   1.279       .  A
O254       Ni261   1.917       .  S
O254        C264   1.279   1_545  A
O255       Ni261   1.952   1_455  S
O255        C265   1.289   1_545  A
O256       Ni261   1.954       .  S
O256        C266   1.288   1_545  A
O257       Ni262   1.948       .  S
O257        C266   1.283       .  A
O258       Ni262   1.933   1_455  S
O258        C265   1.282       .  A
O259       Ni262   1.947       .  S
O259        C264   1.288       .  A
O260       Ni262   1.945   1_455  S
O260        C263   1.288   1_565  A
Ni261      Ni262   2.381   1_545  S
C263        C475   1.499       .  S
C264        C489   1.502       .  S
C265        C506   1.516   1_565  S
C266        C464   1.518       .  S
N267        C271   1.362       .  A
N267        C268   1.362   1_545  A
N267        C478   1.445       .  S
C268        C269   1.388   1_565  A
C269        C270   1.363       .  A
C269        H272   1.083   1_545  S
C270        C271   1.375       .  A
C270        H273   1.083       .  S
C271        C281   1.464       .  S
O274       Ni280   1.915       .  S
O274        C295   1.268       .  A
O275       Ni298   1.913       .  S
O275        C284   1.272       .  A
O276       Ni280   1.888       .  S
O276       Ni298   1.914       .  S
O276       Ni292   1.925       .  S
O276        H299   0.966       .  S
C277        O294   1.278       .  A
C277        O286   1.270       .  A
C277        C392   1.467       .  S
O278       Ni297   1.916       .  S
O278        C284   1.265       .  A
O279       Ni297   1.918       .  S
O279        C281   1.271       .  A
Ni280       O283   1.907       .  S
Ni280       O285   1.890       .  S
C281        O291   1.270       .  A
O282       Ni298   1.933       .  S
O282        C288   1.276       .  A
O283        C288   1.271       .  A
C284        C318   1.474       .  S
O285        C287   1.270       .  A
O286       Ni297   1.906       .  S
C287        O293   1.273       .  A
C287        C353   1.473       .  S
C288        C311   1.473       .  S
H289        O290   0.966       .  S
O290       Ni298   1.920       .  S
O290       Ni292   1.905       .  S
O290       Ni297   1.893       .  S
O291       Ni292   1.922       .  S
Ni292       O296   1.907       .  S
Ni292       O294   1.944       .  S
O293       Ni298   1.955       .  S
C295        O296   1.271       .  A
C295        C304   1.478       .  S
N300        C304   1.362   1_655  A
N300        C301   1.351       .  A
N300        C587   1.443       .  S
C301        C302   1.382       .  A
C302        C303   1.377   1_655  A
C302        H305   1.079       .  S
C303        C304   1.380       .  A
C303        H306   1.082       .  S
N307        C311   1.357   1_556  A
N307        C308   1.361       .  A
N307        C531   1.439   1_556  S
C308        C309   1.381       .  A
C309        C310   1.363   1_556  A
C309        H312   1.083       .  S
C310        C311   1.379       .  A
C310        H313   1.077       .  S
N314        C318   1.366       .  A
N314        C315   1.362       .  A
N314        C755   1.454       .  S
C315        C316   1.384       .  A
C316        C317   1.369       .  A
C316        H319   1.083       .  S
C317        C318   1.380       .  A
C317        H320   1.083       .  S
N321        C325   1.372   1_565  A
N321        C322   1.370       .  A
N321        C461   1.463       .  S
C322        C323   1.372       .  A
C323        C324   1.358   1_565  A
C323        H326   1.083       .  S
C324        C325   1.387       .  A
C324        H327   1.081       .  S
N328        C332   1.358       .  A
N328        C329   1.364   1_554  A
N328        C559   1.458       .  S
C329        C330   1.382       .  A
C330        C331   1.380   1_556  A
C330        H333   1.079       .  S
C331        C332   1.380       .  A
C331        H334   1.082       .  S
N335        C339   1.370       .  A
N335        C336   1.374       .  A
N335        C646   1.462       .  S
C336        C337   1.373       .  A
C337        C338   1.356       .  A
C337        H340   1.082       .  S
C338        C339   1.385       .  A
C338        H341   1.083       .  S
N342        C346   1.359       .  A
N342        C343   1.365       .  A
N342        C716   1.458       .  S
C343        C344   1.381       .  A
C344        C345   1.380       .  A
C344        H347   1.083       .  S
C345        C346   1.384       .  A
C345        H348   1.080       .  S
N349        C353   1.374       .  A
N349        C350   1.371       .  A
N349        C629   1.461       .  S
C350        C351   1.384       .  A
C351        C352   1.350       .  A
C351        H354   1.082       .  S
C352        C353   1.376       .  A
C352        H355   1.083       .  S
N356        C360   1.362       .  A
N356        C357   1.365   1_455  A
N356        C615   1.455       .  S
C357        C358   1.382       .  A
C358        C359   1.373   1_655  A
C358        H361   1.083       .  S
C359        C360   1.383       .  A
C359        H362   1.083       .  S
N363        C367   1.350       .  A
N363        C364   1.350   1_554  A
N363        C517   1.447       .  S
C364        C365   1.383       .  A
C365        C366   1.377   1_556  A
C365        H368   1.079       .  S
C366        C367   1.383       .  A
C366        H369   1.083       .  S
N370        C374   1.361       .  A
N370        C371   1.362       .  A
N370        C772   1.448       .  S
C371        C372   1.382       .  A
C372        C373   1.375       .  A
C372        H375   1.081       .  S
C373        C374   1.381       .  A
C373        H376   1.083       .  S
N377        C381   1.357       .  A
N377        C378   1.352       .  A
N377        C685   1.454       .  S
C378        C379   1.380       .  A
C379        C380   1.371       .  A
C379        H382   1.077       .  S
C380        C381   1.381       .  A
C380        H383   1.081       .  S
N384        C388   1.359   1_556  A
N384        C385   1.359       .  A
N384        C548   1.439       .  S
C385        C386   1.381       .  A
C386        C387   1.358   1_556  A
C386        H389   1.083       .  S
C387        C388   1.384       .  A
C387        H390   1.082       .  S
N391        C395   1.355       .  A
N391        C392   1.357       .  A
N391        C702   1.436       .  S
C392        C393   1.380       .  A
C393        C394   1.370       .  A
C393        H396   1.082       .  S
C394        C395   1.379       .  A
C394        H397   1.083       .  S
N398        C402   1.365       .  A
N398        C399   1.362   1_455  A
N398        C576   1.454       .  S
C399        C400   1.381       .  A
C400        C401   1.365   1_655  A
C400        H403   1.083       .  S
C401        C402   1.380       .  A
C401        H404   1.082       .  S
N405        C409   1.367       .  A
N405        C406   1.370   1_545  A
N405        C503   1.458       .  S
C406        C407   1.386       .  A
C407        C408   1.359   1_565  A
C407        H410   1.083       .  S
C408        C409   1.376       .  A
C408        H411   1.082       .  S
N412        C416   1.371       .  A
N412        C413   1.367       .  A
N412        C744   1.452       .  S
C413        C414   1.383       .  A
C414        C415   1.372       .  A
C414        H417   1.082       .  S
C415        C416   1.379       .  A
C415        H418   1.082       .  S
N419        C423   1.365       .  A
N419        C420   1.370       .  A
N419        C660   1.453       .  S
C420        C421   1.386       .  A
C421        C422   1.362       .  A
C421        H424   1.083       .  S
C422        C423   1.376       .  A
C422        H425   1.083       .  S
N426        C430   1.367   1_565  A
N426        C427   1.364       .  A
N426        C492   1.457       .  S
C427        C428   1.371       .  A
C428        C429   1.355   1_565  A
C428        H431   1.082       .  S
C429        C430   1.386       .  A
C429        H432   1.083       .  S
N433        C437   1.355       .  A
N433        C434   1.358   1_455  A
N433        C601   1.447       .  S
C434        C435   1.383       .  A
C435        C436   1.372   1_655  A
C435        H438   1.083       .  S
C436        C437   1.376       .  A
C436        H439   1.079       .  S
N440        C444   1.358       .  A
N440        C441   1.362       .  A
N440        C783   1.454       .  S
C441        C442   1.383       .  A
C442        C443   1.371       .  A
C442        H445   1.083       .  S
C443        C444   1.379       .  A
C443        H446   1.082       .  S
N447        C451   1.365       .  A
N447        C448   1.368       .  A
N447        C671   1.462       .  S
C448        C449   1.372       .  A
C449        C450   1.354       .  A
C449        H452   1.083       .  S
C450        C451   1.384       .  A
C450        H453   1.079       .  S
N454        C458   1.355       .  A
N454        C455   1.360       .  A
N454        C727   1.439       .  S
C455        C456   1.385       .  A
C456        C457   1.357       .  A
C456        H459   1.083       .  S
C457        C458   1.380       .  A
C457        H460   1.083       .  S
C461        C462   1.416       .  A
C461        C466   1.413       .  A
C462        C463   1.424       .  A
C462        C467   1.446       .  S
C463        C464   1.414       .  A
C463        C470   1.448       .  S
C464        C465   1.416       .  A
C465        C466   1.425       .  A
C465        C468   1.445       .  S
C466        C469   1.448       .  S
C467        N474   1.156       .  T
C468        N473   1.157       .  T
C469        N471   1.157       .  T
C470        N472   1.157       .  T
C475        C476   1.413       .  A
C475        C480   1.409       .  A
C476        C477   1.419       .  A
C476        C481   1.446       .  S
C477        C478   1.411       .  A
C477        C484   1.447       .  S
C478        C479   1.405       .  A
C479        C480   1.410       .  A
C479        C482   1.448       .  S
C480        C483   1.438       .  S
C481        N488   1.157       .  T
C482        N487   1.157   1_545  T
C483        N485   1.154       .  T
C484        N486   1.157       .  T
C489        C490   1.413   1_565  A
C489        C494   1.416       .  A
C490        C491   1.411   1_545  A
C490        C495   1.448       .  S
C491        C492   1.408       .  A
C491        C498   1.443   1_565  S
C492        C493   1.416       .  A
C493        C494   1.423       .  A
C493        C496   1.448       .  S
C494        C497   1.449       .  S
C495        N502   1.157       .  T
C496        N501   1.157       .  T
C497        N499   1.157       .  T
C498        N500   1.157       .  T
C503        C504   1.418       .  A
C503        C508   1.403   1_545  A
C504        C505   1.422       .  A
C504        C509   1.449       .  S
C505        C506   1.416       .  A
C505        C512   1.449       .  S
C506        C507   1.420   1_545  A
C507        C508   1.417       .  A
C507        C510   1.442       .  S
C508        C511   1.445       .  S
C509        N516   1.157       .  T
C510        N515   1.154       .  T
C511        N513   1.156       .  T
C512        N514   1.157   1_455  T
C517        C518   1.406   1_554  A
C517        C522   1.411       .  A
C518        C519   1.409       .  A
C518        C523   1.446       .  S
C519        C520   1.411       .  A
C519        C526   1.448       .  S
C520        C521   1.409       .  A
C521        C522   1.413   1_556  A
C521        C524   1.444       .  S
C522        C525   1.448       .  S
C523        N530   1.157       .  T
C524        N529   1.157       .  T
C525        N527   1.157       .  T
C526        N528   1.157       .  T
C531        C532   1.408       .  A
C531        C536   1.408       .  A
C532        C533   1.413       .  A
C532        C537   1.446       .  S
C533        C534   1.407       .  A
C533        C540   1.445       .  S
C534        C535   1.407       .  A
C535        C536   1.407       .  A
C535        C538   1.449       .  S
C536        C539   1.446       .  S
C537        N544   1.157       .  T
C538        N543   1.157       .  T
C539        N541   1.156       .  T
C540        N542   1.157       .  T
C545        C546   1.418   1_556  A
C545        C550   1.412       .  A
C546        C547   1.407       .  A
C546        C551   1.451       .  S
C547        C548   1.403   1_554  A
C547        C554   1.448       .  S
C548        C549   1.411       .  A
C549        C550   1.412       .  A
C549        C552   1.449       .  S
C550        C553   1.450       .  S
C551        N558   1.157       .  T
C552        N557   1.157       .  T
C553        N555   1.157   1_565  T
C554        N556   1.156       .  T
C559        C560   1.409   1_554  A
C559        C564   1.415       .  A
C560        C561   1.413       .  A
C560        C565   1.448       .  S
C561        C562   1.418   1_556  A
C561        C568   1.451       .  S
C562        C563   1.412       .  A
C563        C564   1.417       .  A
C563        C566   1.450       .  S
C564        C567   1.445       .  S
C565        N572   1.156       .  T
C566        N571   1.157       .  T
C567        N569   1.156       .  T
C568        N570   1.157       .  T
C573        C574   1.416       .  A
C573        C578   1.419   1_455  A
C574        C575   1.417       .  A
C574        C579   1.451       .  S
C575        C576   1.413       .  A
C575        C582   1.448       .  S
C576        C577   1.407   1_455  A
C577        C578   1.415       .  A
C577        C580   1.447       .  S
C578        C581   1.450       .  S
C579        N586   1.158       .  T
C580        N585   1.157       .  T
C581        N583   1.158       .  T
C582        N584   1.157       .  T
C587        C588   1.405       .  A
C587        C592   1.408   1_655  A
C588        C589   1.410       .  A
C588        C593   1.446       .  S
C589        C590   1.412   1_655  A
C589        C596   1.448       .  S
C590        C591   1.415       .  A
C591        C592   1.411       .  A
C591        C594   1.450       .  S
C592        C595   1.449       .  S
C593        N600   1.156       .  T
C594        N599   1.157       .  T
C595        N597   1.157       .  T
C596        N598   1.157       .  T
C601        C602   1.412       .  A
C601        C606   1.407       .  A
C602        C603   1.413       .  A
C602        C607   1.449       .  S
C603        C604   1.412       .  A
C603        C610   1.450       .  S
C604        C605   1.416       .  A
C605        C606   1.412       .  A
C605        C608   1.450       .  S
C606        C609   1.448       .  S
C607        N614   1.157   1_455  T
C608        N613   1.157       .  T
C609        N611   1.157       .  T
C610        N612   1.157   1_455  T
C615        C616   1.413       .  A
C615        C620   1.410       .  A
C616        C617   1.419       .  A
C616        C621   1.448       .  S
C617        C618   1.415       .  A
C617        C624   1.449       .  S
C618        C619   1.418       .  A
C619        C620   1.414       .  A
C619        C622   1.449   1_455  S
C620        C623   1.448   1_455  S
C621        N628   1.157       .  T
C622        N627   1.157       .  T
C623        N625   1.156       .  T
C624        N626   1.157       .  T
C629        C630   1.410       .  A
C629        C634   1.417       .  A
C630        C631   1.417       .  A
C630        C635   1.447       .  S
C631        C632   1.412       .  A
C631        C638   1.441       .  S
C632        C633   1.413       .  A
C633        C634   1.423       .  A
C633        C636   1.448       .  S
C634        C637   1.447       .  S
C635        N642   1.157       .  T
C636        N641   1.157       .  T
C637        N639   1.157       .  T
C638        N640   1.155       .  T
C643        C644   1.413       .  A
C643        C648   1.414       .  A
C644        C645   1.419       .  A
C644        C649   1.452       .  S
C645        C646   1.416       .  A
C645        C652   1.444       .  S
C646        C647   1.417       .  A
C647        C648   1.420       .  A
C647        C650   1.448       .  S
C648        C651   1.449       .  S
C649        N656   1.157       .  T
C650        N655   1.157       .  T
C651        N653   1.157       .  T
C652        N654   1.156       .  T
C657        C658   1.416       .  A
C657        C662   1.414       .  A
C658        C659   1.415       .  A
C658        C663   1.447       .  S
C659        C660   1.407       .  A
C659        C666   1.445       .  S
C660        C661   1.415       .  A
C661        C662   1.417       .  A
C661        C664   1.449       .  S
C662        C665   1.450       .  S
C663        N670   1.156       .  T
C664        N669   1.157       .  T
C665        N667   1.157       .  T
C666        N668   1.156       .  T
C671        C672   1.415       .  A
C671        C676   1.414       .  A
C672        C673   1.421       .  A
C672        C677   1.448       .  S
C673        C674   1.416       .  A
C673        C680   1.449       .  S
C674        C675   1.415       .  A
C675        C676   1.420       .  A
C675        C678   1.450       .  S
C676        C679   1.443       .  S
C677        N684   1.157       .  T
C678        N683   1.157       .  T
C679        N681   1.155       .  T
C680        N682   1.157       .  T
C685        C686   1.408       .  A
C685        C690   1.411       .  A
C686        C687   1.410       .  A
C686        C691   1.443       .  S
C687        C688   1.414       .  A
C687        C694   1.452       .  S
C688        C689   1.417       .  A
C689        C690   1.417       .  A
C689        C692   1.446       .  S
C690        C693   1.449       .  S
C691        N698   1.156       .  T
C692        N697   1.156       .  T
C693        N695   1.157       .  T
C694        N696   1.157       .  T
C699        C700   1.409       .  A
C699        C704   1.411       .  A
C700        C701   1.405       .  A
C700        C705   1.449       .  S
C701        C702   1.407       .  A
C701        C708   1.447       .  S
C702        C703   1.405       .  A
C703        C704   1.411       .  A
C703        C706   1.448       .  S
C704        C707   1.445       .  S
C705        N712   1.157   1_455  T
C706        N711   1.157       .  T
C707        N709   1.156       .  T
C708        N710   1.156       .  T
C713        C714   1.416       .  A
C713        C718   1.418       .  A
C714        C715   1.414       .  A
C714        C719   1.447       .  S
C715        C716   1.410       .  A
C715        C722   1.449       .  S
C716        C717   1.412       .  A
C717        C718   1.418       .  A
C717        C720   1.447       .  S
C718        C721   1.451       .  S
C719        N726   1.157       .  T
C720        N725   1.157       .  T
C721        N723   1.158       .  T
C722        N724   1.157       .  T
C727        C728   1.406       .  A
C727        C732   1.410       .  A
C728        C729   1.410       .  A
C728        C733   1.446       .  S
C729        C730   1.410       .  A
C729        C736   1.448       .  S
C730        C731   1.409       .  A
C731        C732   1.411       .  A
C731        C734   1.448       .  S
C732        C735   1.449       .  S
C733        N740   1.156       .  T
C734        N739   1.157       .  T
C735        N737   1.157       .  T
C736        N738   1.157   1_655  T
C741        C742   1.408       .  A
C741        C746   1.422       .  A
C742        C743   1.394       .  A
C742        C747   1.447       .  S
C743        C744   1.396       .  A
C743        C750   1.428       .  S
C744        C745   1.416       .  A
C745        C746   1.422       .  A
C745        C748   1.447       .  S
C746        C749   1.446       .  S
C747        N754   1.157       .  T
C748        N753   1.157       .  T
C749        N751   1.156       .  T
C750        N752   1.152       .  T
C755        C756   1.415       .  A
C755        C760   1.406       .  A
C756        C757   1.418       .  A
C756        C761   1.449       .  S
C757        C758   1.415       .  A
C757        C764   1.450       .  S
C758        C759   1.420       .  A
C759        C760   1.414       .  A
C759        C762   1.447       .  S
C760        C763   1.449       .  S
C761        N768   1.157       .  T
C762        N767   1.157       .  T
C763        N765   1.157       .  T
C764        N766   1.157       .  T
C769        C770   1.411       .  A
C769        C774   1.416       .  A
C770        C771   1.413       .  A
C770        C775   1.450       .  S
C771        C772   1.413       .  A
C771        C778   1.449       .  S
C772        C773   1.408       .  A
C773        C774   1.412       .  A
C773        C776   1.449       .  S
C774        C777   1.449       .  S
C775        N782   1.157       .  T
C776        N781   1.157       .  T
C777        N779   1.157   1_565  T
C778        N780   1.157       .  T
C783        C784   1.406       .  A
C783        C788   1.413       .  A
C784        C785   1.412       .  A
C784        C789   1.449       .  S
C785        C786   1.419       .  A
C785        C792   1.448       .  S
C786        C787   1.416       .  A
C787        C788   1.421       .  A
C787        C790   1.449       .  S
C788        C791   1.448       .  S
C789        N796   1.157       .  T
C790        N795   1.157       .  T
C791        N793   1.157       .  T
C792        N794   1.156       .  T
