geometry optimzed in LAMMPS
_audit_creation_date              2020-11-30 
_audit_creation_method            'lammps2cif' 
_symmetry_space_group_name_H-M    'P1' 
_symmetry_Int_Tables_number       1 
_symmetry_cell_setting            triclinic 
loop_ 
_symmetry_equiv_pos_as_xyz 
  x,y,z 
_cell_length_a                    40.64522074 
_cell_length_b                    40.70199115292292 
_cell_length_c                    40.737953205788706 
_cell_angle_alpha                 89.79501824902542 
_cell_angle_beta                  89.5705509461584 
_cell_angle_gamma                 89.76201962073004 
loop_ 
_atom_site_label 
_atom_site_type_symbol 
_atom_site_fract_x 
_atom_site_fract_y 
_atom_site_fract_z 
_atom_site_charge 
N1          N  0.49145299  0.00071087  0.45060555    -0.36300
N2          N  0.49487013  0.95069455  0.50111409    -0.56900
N3          N  0.50058213  0.00111563  0.55059073    -0.36300
N4          N  0.49962747  0.05121780  0.50031990    -0.56900
C5          C  0.49767916  0.97369566  0.43227851     0.27300
C6          C  0.49893963  0.02714349  0.43187177     0.27300
C7          C  0.50736697  0.97402735  0.56860612     0.27300
C8          C  0.51054261  0.02738009  0.56805363     0.27300
C9          C  0.48697434  0.93175590  0.47525564     0.35900
C10         C  0.49011149  0.93204856  0.52816111     0.35900
C11         C  0.49228074  0.07038208  0.47428866     0.35900
C12         C  0.49754146  0.07067751  0.52702933     0.35900
C13         C  0.50892544  0.98309352  0.40144619    -0.21600
C14         C  0.50962293  0.01688762  0.40115361    -0.21600
C15         C  0.52165931  0.98315783  0.59798755    -0.21600
C16         C  0.52377521  0.01688665  0.59758237    -0.21600
C17         C  0.47720111  0.90089157  0.48585560    -0.22600
C18         C  0.47922943  0.90105353  0.51945395    -0.22600
C19         C  0.48565536  0.10222603  0.48443029    -0.22600
C20         C  0.48893992  0.10240102  0.51793534    -0.22600
C21         C  0.49193553  0.94090842  0.44220566    -0.18000
C22         C  0.49487988  0.06025916  0.44132467    -0.18000
C23         C  0.50542852  0.06057280  0.55918858    -0.18000
C24         C  0.49853610  0.94163879  0.56021864    -0.18000
H25         H  0.51577829  0.96726055  0.38120912     0.14900
H26         H  0.51713209  0.03217124  0.38065428     0.14900
H27         H  0.52927920  0.96725099  0.61789271     0.14900
H28         H  0.53334983  0.03200907  0.61708561     0.14900
H29         H  0.47018008  0.88018724  0.47089038     0.13200
H30         H  0.47413080  0.88043368  0.53552111     0.13200
H31         H  0.47972835  0.12325272  0.46920878     0.13200
H32         H  0.48591804  0.12356566  0.53369842     0.13200
H33         H  0.47948708  0.00127549  0.47325106     0.26500
H34         H  0.48604244  0.00184016  0.52974249     0.26500
N35         N  0.94700159  0.50179072  0.48613852    -0.36300
N36         N  0.99609255  0.45027428  0.48641542    -0.56900
N37         N  0.04749440  0.49905057  0.48832838    -0.36300
N38         N  0.99818535  0.55064872  0.49022935    -0.56900
C39         C  0.92826505  0.47524916  0.49292856     0.27300
C40         C  0.92949413  0.52857350  0.49524157     0.27300
C41         C  0.06471792  0.47161958  0.49596527     0.27300
C42         C  0.06597756  0.52507602  0.49705897     0.27300
C43         C  0.96935710  0.43231928  0.47907461     0.35900
C44         C  0.02238967  0.43064988  0.48114497     0.35900
C45         C  0.97216488  0.57044982  0.48434861     0.35900
C46         C  0.02527799  0.56893280  0.48477640     0.35900
C47         C  0.89842891  0.48524798  0.50636037    -0.21600
C48         C  0.89919635  0.51899828  0.50779862    -0.21600
C49         C  0.09469291  0.48029849  0.50939501    -0.21600
C50         C  0.09547856  0.51411178  0.51010857    -0.21600
C51         C  0.97866021  0.40116040  0.46888619    -0.22600
C52         C  0.01239019  0.40006621  0.47029676    -0.22600
C53         C  0.98265793  0.60147053  0.47507427    -0.22600
C54         C  0.01644242  0.60050153  0.47528065    -0.22600
C55         C  0.93679799  0.44245899  0.48551670    -0.18000
C56         C  0.93923375  0.56140854  0.48999219    -0.18000
C57         C  0.05760660  0.55835519  0.49155901    -0.18000
C58         C  0.05491678  0.43913416  0.48901226    -0.18000
H59         H  0.87809459  0.46985641  0.51400244     0.14900
H60         H  0.87954033  0.53472254  0.51667427     0.14900
H61         H  0.11412970  0.46397643  0.51746797     0.14900
H62         H  0.11562327  0.52893208  0.51886152     0.14900
H63         H  0.96275399  0.38103577  0.46220689     0.13200
H64         H  0.02773437  0.37897985  0.46474485     0.13200
H65         H  0.96756074  0.62266458  0.46934051     0.13200
H66         H  0.03263804  0.62086251  0.46976371     0.13200
H67         H  0.96869888  0.50183778  0.47243500     0.26500
H68         H  0.02615195  0.50005362  0.47445389     0.26500
N69         N  0.49587381  0.50471364  0.95445018    -0.36300
N70         N  0.54972534  0.50142721  0.00135315    -0.56900
N71         N  0.50223140  0.50419566  0.05502873    -0.36300
N72         N  0.44823793  0.50327934  0.00805984    -0.56900
C73         C  0.52130981  0.49853165  0.93378191     0.27300
C74         C  0.46785397  0.50072489  0.93728488     0.27300
C75         C  0.53016192  0.49884542  0.07210838     0.27300
C76         C  0.47662437  0.49870185  0.07566344     0.27300
C77         C  0.56763220  0.50407455  0.97342252     0.35900
C78         C  0.57097561  0.50516891  0.02638285     0.35900
C79         C  0.42704464  0.50753432  0.98297914     0.35900
C80         C  0.43039127  0.50619852  0.03600318     0.35900
C81         C  0.50931002  0.49119087  0.90288533    -0.21600
C82         C  0.47562182  0.49263588  0.90507013    -0.21600
C83         C  0.52219376  0.49049707  0.10423988    -0.21600
C84         C  0.48845085  0.49031057  0.10645401    -0.21600
C85         C  0.60050501  0.50893232  0.98073340    -0.22600
C86         C  0.60262505  0.50963533  0.01429256    -0.22600
C87         C  0.39546103  0.51259187  0.99501619    -0.22600
C88         C  0.39756383  0.51169495  0.02861871    -0.22600
C89         C  0.55511727  0.50082678  0.94136466    -0.18000
C90         C  0.43541582  0.50525357  0.94934161    -0.18000
C91         C  0.44287573  0.50245427  0.06811608    -0.18000
C92         C  0.56267483  0.50261888  0.06002033    -0.18000
H93         H  0.52335957  0.48554250  0.88093188     0.14900
H94         H  0.45878503  0.48820358  0.88512549     0.14900
H95         H  0.53891047  0.48518370  0.12413456     0.14900
H96         H  0.47425724  0.48482434  0.12836805     0.14900
H97         H  0.62088517  0.51152903  0.96367934     0.13200
H98         H  0.62499109  0.51272834  0.02817720     0.13200
H99         H  0.37317686  0.51620471  0.98105306     0.13200
H100        H  0.37719601  0.51455244  0.04565327     0.13200
H101        H  0.49758675  0.51455327  0.97788950     0.26500
H102        H  0.50077595  0.51452988  0.03169967     0.26500
N103        N  0.99578352  0.50151873  0.04657924    -0.36300
N104        N  0.99995232  0.55289588  0.99640798    -0.56900
N105        N  0.99966765  0.50318656  0.94616846    -0.36300
N106        N  0.99867080  0.45196052  0.99612895    -0.56900
C107        C  0.00283710  0.52799598  0.06511803     0.27300
C108        C  0.00206831  0.47453101  0.06501722     0.27300
C109        C  0.00676483  0.53008440  0.92794909     0.27300
C110        C  0.00685752  0.47665740  0.92761832     0.27300
C111        C  0.99313306  0.57136336  0.02305695     0.35900
C112        C  0.99419570  0.57222742  0.97003094     0.35900
C113        C  0.99291382  0.43227799  0.02229321     0.35900
C114        C  0.99465073  0.43318973  0.96923307     0.35900
C115        C  0.01333691  0.51775165  0.09583125    -0.21600
C116        C  0.01276938  0.48397267  0.09578995    -0.21600
C117        C  0.01860323  0.52058795  0.89741435    -0.21600
C118        C  0.01832258  0.48685777  0.89705974    -0.21600
C119        C  0.98330308  0.60263258  0.01362320    -0.22600
C120        C  0.98386034  0.60314730  0.97997069    -0.22600
C121        C  0.98545010  0.40079378  0.01204992    -0.22600
C122        C  0.98665923  0.40131759  0.97841316    -0.22600
C123        C  0.99794624  0.56110949  0.05577827    -0.18000
C124        C  0.99704327  0.44167136  0.05527150    -0.18000
C125        C  0.00089490  0.44367233  0.93669828    -0.18000
C126        C  0.00004321  0.56283403  0.93718962    -0.18000
H127        H  0.02041303  0.53303340  0.11626709     0.14900
H128        H  0.01938039  0.46817290  0.11614565     0.14900
H129        H  0.02581986  0.53632183  0.87715250     0.14900
H130        H  0.02522169  0.47171285  0.87633928     0.14900
H131        H  0.97660371  0.62299853  0.02935688     0.13200
H132        H  0.97756427  0.62397155  0.96463271     0.13200
H133        H  0.98033417  0.37951552  0.02723185     0.13200
H134        H  0.98279361  0.38037412  0.96264767     0.13200
H135        H  0.98386908  0.50199391  0.02411600     0.26500
H136        H  0.98660724  0.50294482  0.96815970     0.26500
N137        N  0.54660076  0.00096469  0.99612515    -0.36300
N138        N  0.49796833  0.05433809  0.99889050    -0.56900
N139        N  0.44640984  0.00679773  0.00227132    -0.36300
N140        N  0.49506111  0.95335371  0.00282052    -0.56900
C141        C  0.56630273  0.02707819  0.00093215     0.27300
C142        C  0.56452512  0.97371584  0.00291246     0.27300
C143        C  0.42896543  0.03434100  0.00907911     0.27300
C144        C  0.42739224  0.98102329  0.01074403     0.27300
C145        C  0.52512547  0.07191550  0.99176885     0.35900
C146        C  0.47215212  0.07505287  0.99548767     0.35900
C147        C  0.52032935  0.93273129  0.99609038     0.35900
C148        C  0.46730538  0.93591056  0.99861643     0.35900
C149        C  0.59731321  0.01626876  0.01029557    -0.21600
C150        C  0.59609063  0.98259785  0.01180850    -0.21600
C151        C  0.39836929  0.02593569  0.02171779    -0.21600
C152        C  0.39734986  0.99222108  0.02272955    -0.21600
C153        C  0.51653366  0.10411435  0.98425758    -0.22600
C154        C  0.48291137  0.10603694  0.98647030    -0.22600
C155        C  0.50863985  0.90194921  0.98788922    -0.22600
C156        C  0.47494033  0.90396000  0.98947614    -0.22600
C157        C  0.55765008  0.06025454  0.99521074    -0.18000
C158        C  0.55379243  0.94102287  0.99906201    -0.18000
C159        C  0.43530544  0.94775754  0.00520624    -0.18000
C160        C  0.43920360  0.06677785  0.00243808    -0.18000
H161        H  0.61879086  0.03101121  0.01523325     0.14900
H162        H  0.61632887  0.96648248  0.01817404     0.14900
H163        H  0.37867845  0.04237277  0.02908770     0.14900
H164        H  0.37663114  0.97760990  0.03087410     0.14900
H165        H  0.53276375  0.12434956  0.97843691     0.13200
H166        H  0.46815553  0.12786820  0.98250361     0.13200
H167        H  0.52289072  0.88032492  0.98157403     0.13200
H168        H  0.45800484  0.88410538  0.98475249     0.13200
H169        H  0.52366430  0.00169154  0.98510358     0.26500
H170        H  0.46811848  0.00538346  0.98876834     0.26500
O171        O  0.80893638  0.72049255  0.78626961    -0.78200
C172        C  0.73121163  0.77363585  0.83997009     0.82900
O173        O  0.71024881  0.67697043  0.74106850    -0.79300
O174        O  0.67248601  0.78975314  0.75297445    -0.80800
O175        O  0.78314019  0.81698910  0.71831957    -0.80600
O176        O  0.82615684  0.75027341  0.74355963    -0.79200
Zn177      Zn  0.75911254  0.72557222  0.78850540     1.55700
O178        O  0.74094934  0.83500757  0.74845037    -0.80600
Cd179      Cd  0.78229318  0.76640632  0.72373164     1.59700
Cd180      Cd  0.71451574  0.72434526  0.72222829     1.59600
O181        O  0.78000909  0.74712994  0.67717925    -0.80600
O182        O  0.74419345  0.75139861  0.75094078    -1.91100
Cd183      Cd  0.72086257  0.79158824  0.76721290     1.59900
O184        O  0.73295418  0.71987846  0.67420667    -0.80600
O185        O  0.72103975  0.79354465  0.81800771    -0.79200
C186        C  0.72116961  0.66399216  0.76738526     0.83300
C187        C  0.83203501  0.73125191  0.76774466     0.83000
O188        O  0.74565052  0.74677087  0.83227099    -0.78200
C189        C  0.76527933  0.84040349  0.72921412     0.83800
O190        O  0.73925778  0.67996231  0.78716180    -0.78300
C191        C  0.75980616  0.72978708  0.66108198     0.83900
C192        C  0.65537099  0.77099476  0.73495550     0.84200
O193        O  0.66772554  0.74543578  0.72141784    -0.80700
O194        O  0.16336721  0.76328393  0.74689725    -0.78200
C195        C  0.22817924  0.84866460  0.73437506     0.82900
O196        O  0.24872638  0.72496424  0.67399183    -0.79300
O197        O  0.32012267  0.78969135  0.74502316    -0.80800
O198        O  0.24712008  0.75446011  0.83222757    -0.80600
O199        O  0.17754277  0.73561284  0.79186532    -0.79200
Zn200      Zn  0.20676223  0.77648667  0.72533449     1.55700
O201        O  0.27864201  0.79559177  0.81508089    -0.80600
Cd202      Cd  0.22843686  0.73501780  0.78924087     1.59700
Cd203      Cd  0.26994376  0.72810029  0.72030899     1.59600
O204        O  0.24459347  0.68687173  0.78815698    -0.80600
O205        O  0.24428175  0.75909807  0.74934373    -1.91100
Cd206      Cd  0.27330532  0.79590845  0.76427593     1.59900
O207        O  0.27286841  0.68136226  0.74143686    -0.80600
O208        O  0.25446111  0.84157862  0.74991120    -0.79200
C209        C  0.22342930  0.73901395  0.66183449     0.83300
C210        C  0.15562637  0.74752783  0.77294464     0.83000
O211        O  0.20915225  0.82612842  0.72407740    -0.78200
C212        C  0.26695183  0.77778566  0.83822610     0.83800
O213        O  0.20610981  0.75916651  0.67862491    -0.78300
C214        C  0.26215648  0.66968869  0.76860672     0.83900
C215        C  0.33383994  0.76840939  0.72647173     0.84200
O216        O  0.31800942  0.74430466  0.71451615    -0.80700
O217        O  0.75179562  0.17030563  0.75180010    -0.78200
C218        C  0.73991038  0.23275613  0.83924767     0.82900
O219        O  0.67885697  0.25824950  0.72008375    -0.79300
O220        O  0.75256155  0.32682189  0.78361190    -0.80800
O221        O  0.83690256  0.25118455  0.74362077    -0.80600
O222        O  0.79549205  0.18494267  0.72202444    -0.79200
Zn223      Zn  0.73107359  0.21320843  0.76700877     1.55700
O224        O  0.82090965  0.27926703  0.78786363    -0.80600
Cd225      Cd  0.79316382  0.23582220  0.72334704     1.59700
Cd226      Cd  0.72541030  0.27902942  0.72113877     1.59600
O227        O  0.79079637  0.25376381  0.67577436    -0.80600
O228        O  0.75451892  0.25135006  0.74990351    -1.91100
Cd229      Cd  0.76997850  0.27880796  0.78745687     1.59900
O230        O  0.74414203  0.28243437  0.67319566    -0.80600
O231        O  0.75444609  0.25966059  0.83245560    -0.79200
C232        C  0.66665361  0.23261013  0.73354622     0.83300
C233        C  0.77707632  0.16289842  0.73461595     0.83000
O234        O  0.73078962  0.21324097  0.81666360    -0.78200
C235        C  0.84349140  0.26743579  0.76939579     0.83800
O236        O  0.68396992  0.21399083  0.75183039    -0.78300
C237        C  0.77053031  0.27155264  0.65978831     0.83900
C238        C  0.73335055  0.34166414  0.76373652     0.84200
O239        O  0.72091432  0.32677314  0.73927811    -0.80700
O240        O  0.25618762  0.25664387  0.66738542    -0.78200
C241        C  0.34627205  0.24526125  0.72479571     0.82900
O242        O  0.22803131  0.18398142  0.75858597    -0.79300
O243        O  0.29553664  0.25998059  0.82094704    -0.80800
O244        O  0.25137069  0.34285483  0.74859325    -0.80600
O245        O  0.22651810  0.29927003  0.68418419    -0.79200
Zn246      Zn  0.27284645  0.23647708  0.70995736     1.55700
O247        O  0.29737179  0.32767226  0.77390083    -0.80600
Cd248      Cd  0.23070658  0.29865893  0.73450381     1.59700
Cd249      Cd  0.23040809  0.23135204  0.77819057     1.59600
O250        O  0.18346604  0.29585840  0.75333850    -0.80600
O251        O  0.25788642  0.26032432  0.74863198    -1.91100
Cd252      Cd  0.29713480  0.27676056  0.77291954     1.59900
O253        O  0.18240960  0.24952566  0.78259659    -0.80600
O254        O  0.34115086  0.26137170  0.75116619    -0.79200
C255        C  0.23940333  0.17244442  0.73164106     0.83300
C256        C  0.23800505  0.28146129  0.66114133     0.83000
O257        O  0.32235010  0.23498102  0.70768277    -0.78200
C258        C  0.27772468  0.34995951  0.76372273     0.83800
O259        O  0.25654363  0.19005190  0.71212886    -0.78300
C260        C  0.16811845  0.27505350  0.77111171     0.83900
C261        C  0.27609157  0.24183300  0.83768887     0.84200
O262        O  0.25034475  0.22926351  0.82516684    -0.80700
O263        O  0.74935099  0.74889089  0.17065235    -0.78200
C264        C  0.83739544  0.73514315  0.23251233     0.82900
O265        O  0.71627520  0.67495486  0.25565405    -0.79300
O266        O  0.78009502  0.74385753  0.32734814    -0.80800
O267        O  0.74642652  0.83317445  0.25431828    -0.80600
O268        O  0.72174453  0.79319637  0.18705011    -0.79200
Zn269      Zn  0.76513752  0.72747614  0.21290729     1.55700
O270        O  0.78816100  0.81384554  0.28366533    -0.80600
Cd271      Cd  0.72388345  0.79056744  0.23770387     1.59700
Cd272      Cd  0.71772714  0.72092979  0.27674892     1.59600
O273        O  0.67595785  0.78912744  0.25537242    -0.80600
O274        O  0.74840267  0.75025568  0.25152583    -1.91100
Cd275      Cd  0.78591082  0.76316666  0.28033095     1.59900
O276        O  0.67032637  0.74034577  0.27960303    -0.80600
O277        O  0.83080536  0.74750340  0.26055862    -0.79200
C278        C  0.73150648  0.66266691  0.23111364     0.83300
C279        C  0.73283760  0.77481985  0.16420167     0.83000
O280        O  0.81468411  0.72754961  0.21255390    -0.78200
C281        C  0.77172333  0.83791060  0.27203186     0.83800
O282        O  0.75068593  0.67997944  0.21326929    -0.78300
C283        C  0.65850434  0.76808444  0.27083094     0.83900
C284        C  0.75877842  0.72469675  0.34020808     0.84200
O285        O  0.73424137  0.71405562  0.32418347    -0.80700
O286        O  0.27926364  0.78077460  0.18205532    -0.78200
C287        C  0.23001118  0.83660014  0.26083173     0.82900
O288        O  0.32255066  0.73886787  0.28435837    -0.79300
O289        O  0.20731158  0.75082035  0.32174592    -0.80800
O290        O  0.18343256  0.71933234  0.21009837    -0.80600
O291        O  0.25115740  0.73658123  0.16694254    -0.79200
Zn292      Zn  0.27531172  0.78373792  0.23190605     1.55700
O293        O  0.16515246  0.75053347  0.25098746    -0.80600
Cd294      Cd  0.23387546  0.71986445  0.21243848     1.59700
Cd295      Cd  0.27467113  0.72160777  0.28203385     1.59600
O296        O  0.24914405  0.67192686  0.21987451    -0.80600
O297        O  0.24859826  0.74806796  0.24960987    -1.91100
Cd298      Cd  0.20861633  0.76523039  0.27290664     1.59900
O299        O  0.27679396  0.67299622  0.26706660    -0.80600
O300        O  0.20981990  0.81558126  0.27236744    -0.79200
C301        C  0.33691565  0.76284731  0.27006367     0.83300
C302        C  0.26908595  0.76127854  0.15986145     0.83000
O303        O  0.25576284  0.82795316  0.24489974    -0.78200
C304        C  0.15983600  0.73236002  0.22618238     0.83800
O305        O  0.32146556  0.78130908  0.25003031    -0.78300
C306        C  0.26565901  0.65760861  0.24229060     0.83900
C307        C  0.22719823  0.73532518  0.34034256     0.84200
O308        O  0.25414156  0.72338930  0.32922644    -0.80700
O309        O  0.72200671  0.21032018  0.18372471    -0.78200
C310        C  0.77351654  0.16039435  0.26299713     0.82900
O311        O  0.67605958  0.26111677  0.27604733    -0.79300
O312        O  0.78584044  0.25078256  0.32114982    -0.80800
O313        O  0.81841260  0.27123409  0.20453101    -0.80600
O314        O  0.75012310  0.25250700  0.16387845    -0.79200
Zn315      Zn  0.72672662  0.21061769  0.23279293     1.55700
O316        O  0.83461220  0.24923781  0.25182061    -0.80600
Cd317      Cd  0.76802739  0.27227786  0.20677908     1.59700
Cd318      Cd  0.72364541  0.27959056  0.27298667     1.59600
O319        O  0.75430170  0.32081006  0.20768997    -0.80600
O320        O  0.75178155  0.24864493  0.24656793    -1.91100
Cd321      Cd  0.79027740  0.23381533  0.27309565     1.59900
O322        O  0.72320850  0.32699780  0.25246371    -0.80600
O323        O  0.79174892  0.18292753  0.27465051    -0.79200
C324        C  0.66390251  0.23364338  0.26738224     0.83300
C325        C  0.73203960  0.22747305  0.15948626     0.83000
O326        O  0.74792251  0.16747012  0.24650047    -0.78200
C327        C  0.84114831  0.26238191  0.22400296     0.83800
O328        O  0.68114799  0.21250429  0.25185062    -0.78300
C329        C  0.73669721  0.33865799  0.22649193     0.83900
C330        C  0.76511196  0.26933170  0.33592147     0.84200
O331        O  0.74086801  0.28233743  0.32084063    -0.80700
N332        N  0.00585069  0.01921298  0.55015586    -0.36300
N333        N  0.05521425  0.01291484  0.49843583    -0.56900
N334        N  0.00359753  0.00740264  0.45021926    -0.36300
N335        N  0.95424812  0.01079738  0.50195068    -0.56900
C336        C  0.03326141  0.01432084  0.56818095     0.27300
C337        C  0.97975893  0.01324761  0.57008433     0.27300
C338        C  0.03008145  0.99925396  0.43163125     0.27300
C339        C  0.97653666  0.99834326  0.43349917     0.27300
C340        C  0.07508779  0.02051423  0.52366424     0.35900
C341        C  0.07378660  0.01513668  0.47091748     0.35900
C342        C  0.93537836  0.01752399  0.52851093     0.35900
C343        C  0.93414770  0.01219199  0.47575544     0.35900
C344        C  0.02446290  0.00601744  0.60009672    -0.21600
C345        C  0.99071275  0.00542813  0.60132070    -0.21600
C346        C  0.01972651  0.98508103  0.40259825    -0.21600
C347        C  0.98588394  0.98450229  0.40378248    -0.21600
C348        C  0.10647479  0.02751165  0.51219567    -0.22600
C349        C  0.10564623  0.02415849  0.47870498    -0.22600
C350        C  0.90307143  0.02294882  0.51923809    -0.22600
C351        C  0.90231648  0.01976038  0.48573062    -0.22600
C352        C  0.06602675  0.01831383  0.55705921    -0.18000
C353        C  0.94629013  0.01561425  0.56121057    -0.18000
C354        C  0.94365530  0.00443728  0.44329638    -0.18000
C355        C  0.06316090  0.00628165  0.43927937    -0.18000
H356        H  0.04067385  0.00087938  0.62045390     0.14900
H357        H  0.97595390  0.99978294  0.62281526     0.14900
H358        H  0.03494122  0.97645545  0.38245893     0.14900
H359        H  0.96994782  0.97533196  0.38474886     0.14900
H360        H  0.12786408  0.03374899  0.52652696     0.13200
H361        H  0.12632393  0.02723536  0.46209527     0.13200
H362        H  0.88215696  0.02812529  0.53501954     0.13200
H363        H  0.88066767  0.02202691  0.47056589     0.13200
H364        H  0.00496715  0.02902150  0.52661259     0.26500
H365        H  0.00380805  0.02201823  0.47103907     0.26500
C366        C  0.19983478  0.02601949  0.30235050     0.80500
N367        N  0.20980668  0.99696265  0.28903614    -0.77800
C368        C  0.19722502  0.96827218  0.30090885     0.83000
N369        N  0.17538149  0.96884642  0.32630171    -0.77700
C370        C  0.16576742  0.99757546  0.34006530     0.83100
N371        N  0.17818295  0.02595233  0.32786810    -0.79400
O372        O  0.24890490  0.26068270  0.17128074    -0.78200
C373        C  0.16294163  0.27016345  0.23418799     0.82900
O374        O  0.28712798  0.32109287  0.26623592    -0.79300
O375        O  0.21437750  0.24547476  0.32282563    -0.80800
O376        O  0.25704454  0.16562721  0.24590207    -0.80600
O377        O  0.27512616  0.21356563  0.18148067    -0.79200
Zn378      Zn  0.23620090  0.27816207  0.21633818     1.55700
O379        O  0.21235758  0.18061927  0.27393550    -0.80600
Cd380      Cd  0.27669471  0.21079302  0.23189668     1.59700
Cd381      Cd  0.28131510  0.27290365  0.28198518     1.59600
O382        O  0.32550729  0.21178429  0.24607706    -0.80600
O383        O  0.25178756  0.24880484  0.25083072    -1.91100
Cd384      Cd  0.21273584  0.23110387  0.27471151     1.59900
O385        O  0.32842966  0.25259220  0.28226821    -0.80600
O386        O  0.16839121  0.24833827  0.25599766    -0.79200
C387        C  0.27549155  0.33666902  0.24168119     0.83300
C388        C  0.26376358  0.23482027  0.16144064     0.83000
O389        O  0.18650646  0.28341132  0.21814939    -0.78200
C390        C  0.23104651  0.15840606  0.26204480     0.83800
O391        O  0.25600605  0.32316660  0.22146158    -0.78300
C392        C  0.34177467  0.22907548  0.26627929     0.83900
C393        C  0.23383182  0.26202411  0.34061599     0.84200
O394        O  0.26095662  0.27337425  0.32935968    -0.80700
C395        C  0.03126451  0.30631516  0.19252875     0.80500
N396        N  0.03078060  0.32984233  0.16873173    -0.77800
C397        C  0.00228909  0.33885875  0.15406924     0.83000
N398        N  0.97386525  0.32450392  0.16387299    -0.77700
C399        C  0.97353614  0.30131020  0.18790022     0.83100
N400        N  0.00239414  0.29214964  0.20223107    -0.79400
C401        C  0.30672808  0.20624443  0.97172503     0.80500
N402        N  0.29192595  0.21632501  0.00013539    -0.77800
C403        C  0.30081235  0.20228856  0.02922938     0.83000
N404        N  0.32451013  0.17859800  0.02970689    -0.77700
C405        C  0.33908275  0.16840297  0.00150244     0.83100
N406        N  0.33039349  0.18270266  0.97282933    -0.79400
C407        C  0.53196754  0.19579986  0.30556840     0.80500
N408        N  0.53092727  0.17221918  0.32913761    -0.77800
C409        C  0.50185483  0.16161678  0.34154403     0.83000
N410        N  0.47357599  0.17391710  0.32901468    -0.77700
C411        C  0.47409730  0.19735073  0.30522431     0.83100
N412        N  0.50346113  0.20886639  0.29383540    -0.79400
C413        C  0.80948394  0.97114479  0.30711102     0.80500
N414        N  0.83022579  0.97218526  0.33303505    -0.77800
C415        C  0.84154224  0.00089998  0.34488338     0.83000
N416        N  0.83195610  0.02924933  0.33023797    -0.77700
C417        C  0.81156493  0.02913797  0.30395230     0.83100
N418        N  0.79981615  0.99990796  0.29260573    -0.79400
C419        C  0.69993020  0.19098917  0.96907291     0.80500
N420        N  0.67520373  0.16878553  0.96771150    -0.77800
C421        C  0.65921430  0.15891570  0.99521919     0.83000
N422        N  0.66868327  0.17117177  0.02444290    -0.77700
C423        C  0.69372563  0.19290090  0.02668564     0.83100
N424        N  0.70913031  0.20334326  0.99867631    -0.79400
C425        C  0.70525850  0.47239630  0.18994104     0.80500
N426        N  0.68199727  0.47257406  0.16625944    -0.77800
C427        C  0.66811835  0.50085706  0.15552722     0.83000
N428        N  0.67837084  0.52961944  0.16861409    -0.77700
C429        C  0.70210425  0.53008369  0.19190525     0.83100
N430        N  0.71555594  0.50137615  0.20284485    -0.79400
C431        C  0.79613593  0.30892887  0.46760935     0.80500
N432        N  0.78627728  0.29785724  0.49772114    -0.77800
C433        C  0.80021453  0.31047714  0.52528982     0.83000
N434        N  0.82412177  0.33355965  0.52236206    -0.77700
C435        C  0.83363309  0.34500273  0.49245459     0.83100
N436        N  0.81962091  0.33238768  0.46524825    -0.79400
C437        C  0.31207314  0.46970857  0.20879619     0.80500
N438        N  0.33723756  0.47159099  0.18680088    -0.77800
C439        C  0.34721625  0.50096561  0.17452172     0.83000
N440        N  0.33236571  0.52873623  0.18553572    -0.77700
C441        C  0.30774713  0.52738677  0.20820371     0.83100
N442        N  0.29699616  0.49773556  0.21935345    -0.79400
C443        C  0.96859030  0.69667067  0.19259665     0.80500
N444        N  0.96796517  0.67343642  0.16878607    -0.77800
C445        C  0.99629939  0.66076688  0.15646791     0.83000
N446        N  0.02532026  0.67249638  0.16719693    -0.77700
C447        C  0.02667768  0.69621303  0.19044865     0.83100
N448        N  0.99803516  0.70809785  0.20356079    -0.79400
C449        C  0.30712902  0.81043957  0.97161159     0.80500
N450        N  0.29680480  0.79365475  0.99899076    -0.77800
C451        C  0.30595192  0.80417228  0.02946190     0.83000
N452        N  0.32512965  0.83123237  0.03216254    -0.77700
C453        C  0.33481402  0.84838791  0.00534625     0.83100
N454        N  0.32516084  0.83802906  0.97545169    -0.79400
C455        C  0.46753685  0.79826195  0.31171475     0.80500
N456        N  0.46602379  0.82303537  0.33390010    -0.77800
C457        C  0.49394799  0.83672694  0.34553691     0.83000
N458        N  0.52346425  0.82511417  0.33496829    -0.77700
C459        C  0.52544396  0.80038448  0.31274819     0.83100
N460        N  0.49727994  0.78693412  0.30097334    -0.79400
C461        C  0.18681862  0.69933171  0.53037776     0.80500
N462        N  0.16414184  0.67488560  0.52986434    -0.77800
C463        C  0.15303860  0.66286440  0.50100656     0.83000
N464        N  0.16424933  0.67603689  0.47251027    -0.77700
C465        C  0.18632064  0.70093257  0.47241532     0.83100
N466        N  0.19834556  0.71212061  0.50147786    -0.79400
C467        C  0.69206432  0.80552632  0.97329926     0.80500
N468        N  0.66772183  0.82848568  0.97345374    -0.77800
C469        C  0.65422919  0.83924163  0.00199223     0.83000
N470        N  0.66645614  0.82788341  0.03071714    -0.77700
C471        C  0.69113678  0.80527850  0.03138434     0.83100
N472        N  0.70375959  0.79362872  0.00243731    -0.79400
C473        C  0.19251851  0.30274572  0.47052742     0.80500
N474        N  0.16648608  0.32372037  0.46961310    -0.77800
C475        C  0.15425030  0.33737745  0.49737035     0.83000
N476        N  0.16846491  0.32997488  0.52642605    -0.77700
C477        C  0.19448587  0.30895140  0.52810587     0.83100
N478        N  0.20664251  0.29541207  0.49991161    -0.79400
C479        C  0.97548975  0.30585840  0.80165624     0.80500
N480        N  0.00511444  0.29367687  0.79143340    -0.77800
C481        C  0.03327995  0.30542961  0.80498819     0.83000
N482        N  0.03163659  0.32930553  0.82805659    -0.77700
C483        C  0.00232038  0.34217983  0.83760593     0.83100
N484        N  0.97454632  0.33038432  0.82406994    -0.79400
C485        C  0.20033237  0.04092471  0.69461339     0.80500
N486        N  0.17826040  0.04119002  0.66974846    -0.77800
C487        C  0.16488775  0.01299294  0.65861146     0.83000
N488        N  0.17362542  0.98424002  0.67289745    -0.77700
C489        C  0.19603090  0.98309411  0.69744014     0.83100
N490        N  0.20942141  0.01168369  0.70848131    -0.79400
C491        C  0.53554800  0.19814461  0.69259818     0.80500
N492        N  0.53544887  0.17203638  0.67194313    -0.77800
C493        C  0.50687709  0.16112152  0.65905218     0.83000
N494        N  0.47831370  0.17646998  0.66710818    -0.77700
C495        C  0.47786777  0.20234281  0.68806420     0.83100
N496        N  0.50674124  0.21344583  0.70052329    -0.79400
C497        C  0.31285937  0.48173499  0.80232491     0.80500
N498        N  0.33333477  0.48215754  0.82850763    -0.77800
C499        C  0.34049200  0.51060900  0.84404062     0.83000
N500        N  0.32658538  0.53886001  0.83314372    -0.77700
C501        C  0.30628654  0.53919643  0.80681458     0.83100
N502        N  0.29899316  0.51035764  0.79161287    -0.79400
C503        C  0.80967181  0.97257023  0.69664435     0.80500
N504        N  0.80010032  0.00106869  0.71171794    -0.77800
C505        C  0.81597350  0.02975259  0.70460632     0.83000
N506        N  0.84037072  0.02985336  0.68185955    -0.77700
C507        C  0.84939665  0.00225299  0.66574857     0.83100
N508        N  0.83397270  0.97370767  0.67341466    -0.79400
C509        C  0.96681738  0.69518177  0.79924228     0.80500
N510        N  0.96912831  0.67146870  0.82261932    -0.77800
C511        C  0.99804981  0.66434685  0.83723841     0.83000
N512        N  0.02541853  0.68072392  0.82772730    -0.77700
C513        C  0.02413785  0.70394869  0.80375711     0.83100
N514        N  0.99470608  0.71122829  0.78942898    -0.79400
C515        C  0.46669557  0.79849798  0.68912150     0.80500
N516        N  0.49489879  0.79019194  0.70484447    -0.77800
C517        C  0.52341816  0.80574190  0.69693952     0.83000
N518        N  0.52324645  0.83050698  0.67453767    -0.77700
C519        C  0.49512796  0.83909216  0.65891396     0.83100
N520        N  0.46711572  0.82246466  0.66593071    -0.79400
C521        C  0.68313327  0.53000986  0.79835020     0.80500
N522        N  0.65958432  0.52766770  0.82194150    -0.77800
C523        C  0.64952590  0.49827983  0.83385731     0.83000
N524        N  0.66340085  0.47056635  0.82153453    -0.77700
C525        C  0.68689272  0.47210100  0.79764850     0.83100
N526        N  0.69675656  0.50195448  0.78583500    -0.79400
C527        C  0.78858553  0.68293052  0.47169265     0.80500
N528        N  0.77790810  0.69510706  0.50103094    -0.77800
C529        C  0.79376868  0.68652144  0.52916650     0.83000
N530        N  0.82074131  0.66671846  0.52753922    -0.77700
C531        C  0.83155537  0.65459481  0.49839172     0.83100
N532        N  0.81488705  0.66240241  0.47075137    -0.79400
C533        C  0.22345954  0.26938601  0.37487807     0.00100
C534        C  0.24717887  0.27404480  0.39940521    -0.11700
C535        C  0.23789254  0.28341642  0.43138578     0.02400
C536        C  0.20427927  0.28826200  0.43917242     0.00100
C537        C  0.18069126  0.28243873  0.41494087    -0.11700
C538        C  0.18979346  0.27347464  0.38314944     0.02300
H539        H  0.27305549  0.27105774  0.39340889     0.15200
H540        H  0.15478733  0.28607277  0.42054407     0.15300
C541        C  0.16392464  0.27125684  0.35908128     0.36900
C542        C  0.26338459  0.28999513  0.45490925     0.36800
N543        N  0.14319570  0.26972153  0.33982486    -0.43400
N544        N  0.28383685  0.29540206  0.47372682    -0.43400
C545        C  0.28485268  0.37136290  0.23609438     0.00100
C546        C  0.26066423  0.39376570  0.22565598    -0.11700
C547        C  0.26866286  0.42642277  0.21818342     0.02400
C548        C  0.30154260  0.43698666  0.22053739     0.00100
C549        C  0.32569482  0.41470821  0.23124388    -0.11700
C550        C  0.31764240  0.38221487  0.23928885     0.02300
H551        H  0.23545232  0.38561836  0.22299849     0.15200
H552        H  0.35110404  0.42259905  0.23273893     0.15300
C553        C  0.34384289  0.36010140  0.24873720     0.36900
C554        C  0.24308884  0.44800481  0.20629876     0.36800
N555        N  0.36489655  0.34242879  0.25621990    -0.43400
N556        N  0.22259310  0.46529113  0.19672708    -0.43400
C557        C  0.37702226  0.22118570  0.27192529     0.00100
C558        C  0.39925419  0.24668525  0.27881423    -0.11700
C559        C  0.43207342  0.23980295  0.28716872     0.02400
C560        C  0.44260233  0.20688238  0.28998594     0.00100
C561        C  0.42097958  0.18162634  0.28145118    -0.11700
C562        C  0.38871074  0.18840777  0.27195153     0.02300
H563        H  0.39087738  0.27200571  0.27802181     0.15200
H564        H  0.42916453  0.15625485  0.28301822     0.15300
C565        C  0.36786676  0.16092789  0.26407743     0.36900
C566        C  0.45396304  0.26672420  0.29403463     0.36800
N567        N  0.35138475  0.13879814  0.25758617    -0.43400
N568        N  0.47159950  0.28831216  0.29923635    -0.43400
C569        C  0.26813031  0.22853646  0.12587236     0.00100
C570        C  0.26580155  0.19596738  0.11500614    -0.11700
C571        C  0.27379001  0.18756736  0.08271641     0.02400
C572        C  0.28506340  0.21185253  0.06062367     0.00100
C573        C  0.28521839  0.24484061  0.07062559    -0.11700
C574        C  0.27670972  0.25339654  0.10303590     0.02300
H575        H  0.25823801  0.17682324  0.13202603     0.15200
H576        H  0.29376003  0.26365278  0.05371727     0.15300
C577        C  0.27923815  0.28737392  0.11275085     0.36900
C578        C  0.27017914  0.15376067  0.07273832     0.36800
N579        N  0.28120847  0.31460086  0.12057625    -0.43400
N580        N  0.26707694  0.12675494  0.06457646    -0.43400
C581        C  0.06352223  0.29682499  0.20713895     0.00100
C582        C  0.08853063  0.32059265  0.20770594    -0.11700
C583        C  0.12050036  0.31273794  0.21763574     0.02400
C584        C  0.12846480  0.28021230  0.22691417     0.00100
C585        C  0.10313299  0.25676012  0.22822552    -0.11700
C586        C  0.07089546  0.26472884  0.21850290     0.02300
H587        H  0.08316550  0.34560949  0.20012032     0.15200
H588        H  0.10877397  0.23178646  0.23574097     0.15300
C589        C  0.04651456  0.23903793  0.21891683     0.36900
C590        C  0.14436233  0.33889884  0.21897760     0.36800
N591        N  0.02699245  0.21841527  0.21932863    -0.43400
N592        N  0.16333493  0.35997107  0.22026347    -0.43400
C593        C  0.20827734  0.05798774  0.28714987     0.00100
C594        C  0.18312006  0.08154142  0.28485503    -0.11700
C595        C  0.18970566  0.11378121  0.27527152     0.02400
C596        C  0.22239510  0.12337691  0.26794640     0.00100
C597        C  0.24734637  0.09921354  0.26813558    -0.11700
C598        C  0.24052673  0.06666448  0.27760559     0.02300
H599        H  0.15805062  0.07484476  0.29124954     0.15200
H600        H  0.27248185  0.10601733  0.26226195     0.15300
C601        C  0.26728318  0.04330534  0.27928052     0.36900
C602        C  0.16218113  0.13629124  0.27332168     0.36800
N603        N  0.28873218  0.02456718  0.28059585    -0.43400
N604        N  0.14006289  0.15422626  0.27185432    -0.43400
C605        C  0.91773913  0.00323431  0.41790210     0.00100
C606        C  0.89693591  0.97595821  0.41635873    -0.11700
C607        C  0.87175823  0.97456247  0.39310520     0.02400
C608        C  0.86693175  0.00119026  0.37101615     0.00100
C609        C  0.88777383  0.02859140  0.37318089    -0.11700
C610        C  0.91321099  0.02958987  0.39598981     0.02300
H611        H  0.90041173  0.95575995  0.43344719     0.15200
H612        H  0.88466311  0.04920982  0.35666051     0.15300
C613        C  0.93458097  0.05784033  0.39641366     0.36900
C614        C  0.85105985  0.94579609  0.39319094     0.36800
N615        N  0.95193119  0.08030404  0.39668379    -0.43400
N616        N  0.83461681  0.92264311  0.39329637    -0.43400
C617        C  0.13938594  0.99865800  0.36561909     0.00100
C618        C  0.12204932  0.02836925  0.37018551    -0.11700
C619        C  0.09659230  0.03090863  0.39327713     0.02400
C620        C  0.08836958  0.00364765  0.41289362     0.00100
C621        C  0.10534415  0.97394308  0.40863372    -0.11700
C622        C  0.13052644  0.97107097  0.38512074     0.02300
H623        H  0.12797254  0.04973829  0.35534939     0.15200
H624        H  0.09896535  0.95300932  0.42392437     0.15300
C625        C  0.14695558  0.93967878  0.38221105     0.36900
C626        C  0.07909229  0.06169674  0.39638893     0.36800
N627        N  0.15990770  0.91440726  0.37985879    -0.43400
N628        N  0.06493177  0.08630912  0.39873418    -0.43400
C629        C  0.87447587  0.00454476  0.63884523     0.00100
C630        C  0.88566974  0.03606078  0.62946031    -0.11700
C631        C  0.90876723  0.04022165  0.60422391     0.02400
C632        C  0.92114022  0.01261884  0.58758679     0.00100
C633        C  0.91032568  0.98122377  0.59655903    -0.11700
C634        C  0.88742435  0.97683254  0.62202357     0.02300
H635        H  0.87637259  0.05782356  0.64173242     0.15200
H636        H  0.92026410  0.95998868  0.58380347     0.15300
C637        C  0.87870768  0.94350738  0.63043264     0.36900
C638        C  0.91931164  0.07303053  0.59573938     0.36800
N639        N  0.87224177  0.91656591  0.63684931    -0.43400
N640        N  0.92761011  0.09939621  0.58904336    -0.43400
C641        C  0.09250171  0.01786807  0.58194388    -0.08300
C642        C  0.11086584  0.98902100  0.58629261    -0.11700
C643        C  0.13452910  0.98669821  0.61097757     0.02400
C644        C  0.14035763  0.01393881  0.63172780     0.00100
C645        C  0.12213456  0.04301299  0.62675566    -0.11700
C646        C  0.09823846  0.04504842  0.60229577     0.02300
H647        H  0.10626696  0.96807283  0.57060813     0.15200
H648        H  0.12604659  0.06409315  0.64242854     0.15300
C649        C  0.07954244  0.07506606  0.59868308     0.36900
C650        C  0.15250238  0.95615804  0.61398470     0.36800
N651        N  0.06440125  0.09902301  0.59575481    -0.43400
N652        N  0.16677651  0.93162016  0.61648612    -0.43400
C653        C  0.78229977  0.29594212  0.43693377     0.00100
C654        C  0.79272780  0.26514303  0.42555533    -0.11700
C655        C  0.78657291  0.25538792  0.39313381     0.02400
C656        C  0.76960067  0.27678363  0.37145227     0.00100
C657        C  0.75738635  0.30672830  0.38381775    -0.11700
C658        C  0.76382350  0.31646229  0.41608421     0.02300
H659        H  0.80711368  0.24936246  0.44151662     0.15200
H660        H  0.74394478  0.32330743  0.36785412     0.15300
C661        C  0.75207823  0.34810750  0.42715914     0.36900
C662        C  0.79813974  0.22340760  0.38288704     0.36800
N663        N  0.74278446  0.37341382  0.43628417    -0.43400
N664        N  0.80741964  0.19776153  0.37472835    -0.43400
C665        C  0.73162564  0.37375475  0.21731389     0.00100
C666        C  0.72641197  0.39743568  0.24194955    -0.11700
C667        C  0.72022040  0.43052769  0.23391026     0.02400
C668        C  0.71850800  0.44019780  0.20065619     0.00100
C669        C  0.72500705  0.41686778  0.17621258    -0.11700
C670        C  0.73162982  0.38410345  0.18405584     0.02300
H671        H  0.72686721  0.39003912  0.26754140     0.15200
H672        H  0.72380882  0.42411866  0.15057848     0.15300
C673        C  0.73644418  0.36155610  0.15709208     0.36900
C674        C  0.71409513  0.45356724  0.26011708     0.36800
N675        N  0.74032998  0.34369611  0.13534532    -0.43400
N676        N  0.70933710  0.47198746  0.28121835    -0.43400
C677        C  0.72254351  0.21817376  0.12546858     0.00100
C678        C  0.72946245  0.23989324  0.09927627    -0.11700
C679        C  0.72086189  0.23230876  0.06685829     0.02400
C680        C  0.70495159  0.20238222  0.06000653     0.00100
C681        C  0.69828037  0.18064419  0.08613422    -0.11700
C682        C  0.70676223  0.18808255  0.11839059     0.02300
H683        H  0.74135489  0.26316442  0.10408271     0.15200
H684        H  0.68640523  0.15732753  0.08142308     0.15300
C685        C  0.69910461  0.16387869  0.14334768     0.36900
C686        C  0.72767476  0.25618565  0.04145339     0.36800
N687        N  0.69294619  0.14450545  0.16331674    -0.43400
N688        N  0.73313249  0.27529202  0.02104326    -0.43400
C689        C  0.78290260  0.12538439  0.26917336     0.00100
C690        C  0.81558866  0.11870363  0.27797005    -0.11700
C691        C  0.82574083  0.08713733  0.28695507     0.02400
C692        C  0.80278902  0.06113204  0.28841311     0.00100
C693        C  0.77058908  0.06704098  0.27747283    -0.11700
C694        C  0.76055805  0.09872556  0.26756535     0.02300
H695        H  0.83355299  0.13834267  0.27789544     0.15200
H696        H  0.75287071  0.04719779  0.27783967     0.15300
C697        C  0.72702598  0.10311008  0.25690894     0.36900
C698        C  0.86028750  0.08213535  0.29350363     0.36800
N699        N  0.70020161  0.10647852  0.24812548    -0.43400
N700        N  0.88809131  0.07842482  0.29825681    -0.43400
C701        C  0.56425026  0.20608609  0.29262810     0.00100
C702        C  0.57382481  0.23891212  0.29569663    -0.11700
C703        C  0.60599695  0.24868203  0.28780623     0.02400
C704        C  0.62908571  0.22533833  0.27571088     0.00100
C705        C  0.61878007  0.19257794  0.27178975    -0.11700
C706        C  0.58693366  0.18281543  0.28040066     0.02300
H707        H  0.55648440  0.25671953  0.30556020     0.15200
H708        H  0.63582860  0.17415952  0.26260034     0.15300
C709        C  0.57803875  0.14871846  0.27636916     0.36900
C710        C  0.61446419  0.28264427  0.29308842     0.36800
N711        N  0.57085238  0.12143381  0.27319132    -0.43400
N712        N  0.62123235  0.30984126  0.29758411    -0.43400
C713        C  0.87600044  0.26839920  0.21410485     0.00100
C714        C  0.90037714  0.27024322  0.23839231    -0.11700
C715        C  0.93280713  0.27934156  0.23049124     0.02400
C716        C  0.94140794  0.28679265  0.19764821     0.00100
C717        C  0.91752436  0.28317538  0.17321544    -0.11700
C718        C  0.88528676  0.27399664  0.18094165     0.02300
H719        H  0.89384488  0.26585476  0.26388444     0.15200
H720        H  0.92395440  0.28811794  0.14777562     0.15300
C721        C  0.86254251  0.27058029  0.15404852     0.36900
C722        C  0.95601912  0.28282302  0.25685678     0.36800
N723        N  0.84445059  0.26791635  0.13241604    -0.43400
N724        N  0.97454914  0.28559224  0.27808621    -0.43400
C725        C  0.21776990  0.73021688  0.37547001     0.00100
C726        C  0.18413442  0.72903229  0.38361430    -0.11700
C727        C  0.17355961  0.72152516  0.41551902     0.02400
C728        C  0.19679907  0.71493750  0.44035119     0.00100
C729        C  0.23039443  0.71831402  0.43297954    -0.11700
C730        C  0.24104127  0.72584685  0.40087978     0.02300
H731        H  0.16585003  0.73303799  0.36474256     0.15200
H732        H  0.24840586  0.71375753  0.45198956     0.15300
C733        C  0.27589294  0.72935966  0.39491064     0.36900
C734        C  0.13857544  0.72094683  0.42213841     0.36800
N735        N  0.30384166  0.73233365  0.39021954    -0.43400
N736        N  0.11055251  0.72063325  0.42738619    -0.43400
C737        C  0.43663449  0.78545942  0.29830254     0.00100
C738        C  0.42311997  0.80077533  0.27068876    -0.11700
C739        C  0.39125357  0.79320763  0.26022382     0.02400
C740        C  0.37211508  0.76978660  0.27781221     0.00100
C741        C  0.38663953  0.75347506  0.30468380    -0.11700
C742        C  0.41843536  0.76129018  0.31508002     0.02300
H743        H  0.43713468  0.81958079  0.25791311     0.15200
H744        H  0.37276581  0.73532115  0.31847659     0.15300
C745        C  0.43151575  0.74504981  0.34375142     0.36900
C746        C  0.37899806  0.81052204  0.23179967     0.36800
N747        N  0.44203823  0.73208603  0.36674148    -0.43400
N748        N  0.36934704  0.82463201  0.20908677    -0.43400
C749        C  0.27897856  0.76748732  0.12514122     0.00100
C750        C  0.25522876  0.76819774  0.10012764    -0.11700
C751        C  0.26369132  0.77790876  0.06786846     0.02400
C752        C  0.29641849  0.78686284  0.06030885     0.00100
C753        C  0.32038428  0.78371147  0.08481553    -0.11700
C754        C  0.31202929  0.77416915  0.11682366     0.02300
H755        H  0.22980337  0.76268137  0.10612130     0.15200
H756        H  0.34579438  0.78960188  0.07910370     0.15300
C757        C  0.33800441  0.77084605  0.14061213     0.36900
C758        C  0.23813061  0.78064265  0.04360607     0.36800
N759        N  0.35886620  0.76781883  0.15956638    -0.43400
N760        N  0.21781982  0.78289976  0.02395716    -0.43400
C761        C  0.05967753  0.70895106  0.19965605     0.00100
C762        C  0.08574498  0.70391337  0.17728282    -0.11700
C763        C  0.11806870  0.71211713  0.18488881     0.02400
C764        C  0.12539072  0.72570502  0.21591513     0.00100
C765        C  0.09918585  0.73229694  0.23777981    -0.11700
C766        C  0.06658954  0.72424407  0.22992596     0.02300
H767        H  0.08100673  0.69322470  0.15343356     0.15200
H768        H  0.10418460  0.74312977  0.26149564     0.15300
C769        C  0.04119631  0.73128915  0.25382889     0.36900
C770        C  0.14289533  0.70643244  0.15990683     0.36800
N771        N  0.02104341  0.73734138  0.27311222    -0.43400
N772        N  0.16272095  0.70185438  0.13987457    -0.43400
C773        C  0.27389218  0.62241389  0.23837396     0.00100
C774        C  0.30611121  0.61225841  0.24525680    -0.11700
C775        C  0.31692987  0.58069580  0.23708833     0.02400
C776        C  0.29519934  0.55839797  0.22222818     0.00100
C777        C  0.26222424  0.56754894  0.21763906    -0.11700
C778        C  0.25144690  0.59944286  0.22546073     0.02300
H779        H  0.32342850  0.62956746  0.25551439     0.15200
H780        H  0.24532651  0.55033563  0.20658096     0.15300
C781        C  0.21737956  0.60805446  0.22013207     0.36900
C782        C  0.35071085  0.57190554  0.24364930     0.36800
N783        N  0.19008556  0.61509249  0.21607039    -0.43400
N784        N  0.37778517  0.56484412  0.24885150    -0.43400
C785        C  0.22274421  0.87183672  0.26667876     0.00100
C786        C  0.18961859  0.88132285  0.26978961    -0.11700
C787        C  0.18092706  0.91317119  0.27906481     0.02400
C788        C  0.20564370  0.93638279  0.28580307     0.00100
C789        C  0.23876063  0.92768978  0.28091927    -0.11700
C790        C  0.24753033  0.89564423  0.27147147     0.02300
H791        H  0.17030280  0.86358766  0.26539150     0.15200
H792        H  0.25784420  0.94545916  0.28605093     0.15300
C793        C  0.28205173  0.88745504  0.26892340     0.36900
C794        C  0.14636604  0.92146661  0.28117091     0.36800
N795        N  0.30972340  0.88089165  0.26685967    -0.43400
N796        N  0.11868684  0.92811699  0.28270942    -0.43400
C797        C  0.76287905  0.71411468  0.37471638     0.00100
C798        C  0.77081195  0.73757246  0.39855289    -0.11700
C799        C  0.77671530  0.72820491  0.43115243     0.02400
C800        C  0.77531104  0.69475027  0.44014676     0.00100
C801        C  0.76669705  0.67138923  0.41648284    -0.11700
C802        C  0.76017143  0.68077195  0.38406309     0.02300
H803        H  0.77288633  0.76322258  0.39156139     0.15200
H804        H  0.76624137  0.64555101  0.42311702     0.15300
C805        C  0.75310288  0.65544003  0.36039863     0.36900
C806        C  0.78642732  0.75300807  0.45434711     0.36800
N807        N  0.74752274  0.63517306  0.34139790    -0.43400
N808        N  0.79425965  0.77277795  0.47304296    -0.43400
C809        C  0.72606992  0.62752117  0.22301548     0.00100
C810        C  0.69628964  0.61290334  0.23288643    -0.11700
C811        C  0.68887163  0.58057766  0.22424412     0.02400
C812        C  0.71161950  0.56193813  0.20584578     0.00100
C813        C  0.74200047  0.57572383  0.19714765    -0.11700
C814        C  0.74941205  0.60829571  0.20546214     0.02300
H815        H  0.67819811  0.62706575  0.24656611     0.15200
H816        H  0.75946888  0.56140513  0.18282956     0.15300
C817        C  0.78114497  0.62112059  0.19580842     0.36900
C818        C  0.65751359  0.56706879  0.23413892     0.36800
N819        N  0.80656704  0.63141190  0.18808270    -0.43400
N820        N  0.63243628  0.55611483  0.24203386    -0.43400
C821        C  0.72555118  0.78337751  0.12935690     0.00100
C822        C  0.72431657  0.75821946  0.10578140    -0.11700
C823        C  0.71431314  0.76460930  0.07339895     0.02400
C824        C  0.70569272  0.79688168  0.06383404     0.00100
C825        C  0.70838364  0.82220613  0.08704656    -0.11700
C826        C  0.71819389  0.81589160  0.11933340     0.02300
H827        H  0.72979980  0.73312491  0.11300116     0.15200
H828        H  0.70233870  0.84723836  0.08001812     0.15300
C829        C  0.72071271  0.84347956  0.14139420     0.36900
C830        C  0.71082755  0.73709802  0.05157361     0.36800
N831        N  0.72271619  0.86562317  0.15900598    -0.43400
N832        N  0.70809782  0.71439041  0.03484830    -0.43400
C833        C  0.62374943  0.77644677  0.27950470     0.00100
C834        C  0.60072209  0.75111622  0.28480797    -0.11700
C835        C  0.56818064  0.75813562  0.29460712     0.02400
C836        C  0.55828072  0.79103169  0.29960690     0.00100
C837        C  0.58107448  0.81622193  0.29389105    -0.11700
C838        C  0.61332427  0.80939390  0.28388988     0.02300
H839        H  0.60821300  0.72572058  0.28160405     0.15200
H840        H  0.57372209  0.84160267  0.29763517     0.15300
C841        C  0.63538084  0.83688951  0.27990597     0.36900
C842        C  0.54604553  0.73117051  0.30104247     0.36800
N843        N  0.65298835  0.85896620  0.27672468    -0.43400
N844        N  0.52829004  0.70958748  0.30628469    -0.43400
C845        C  0.78234551  0.87229643  0.27922312     0.00100
C846        C  0.76141710  0.89888861  0.27128316    -0.11700
C847        C  0.76994143  0.93152127  0.27866920     0.02400
C848        C  0.79991981  0.93814369  0.29461364     0.00100
C849        C  0.82132285  0.91172864  0.30118746    -0.11700
C850        C  0.81306181  0.87935568  0.29378937     0.02300
H851        H  0.73795645  0.89422732  0.25973290     0.15200
H852        H  0.84490490  0.91627404  0.31258560     0.15300
C853        C  0.83711102  0.85428200  0.30150755     0.36900
C854        C  0.74698021  0.95736811  0.27052186     0.36800
N855        N  0.85657928  0.83445343  0.30782085    -0.43400
N856        N  0.72854884  0.97802008  0.26378100    -0.43400
C857        C  0.93697251  0.71046329  0.20433802     0.00100
C858        C  0.91463410  0.72179177  0.18078942    -0.11700
C859        C  0.88261551  0.73105632  0.18960349     0.02400
C860        C  0.87218332  0.72887797  0.22275820     0.00100
C861        C  0.89503482  0.71876060  0.24658268    -0.11700
C862        C  0.92714433  0.70925950  0.23758874     0.02300
H863        H  0.92210536  0.72282293  0.15517604     0.15200
H864        H  0.88733429  0.71671200  0.27204990     0.15300
C865        C  0.94849139  0.69571081  0.26238988     0.36900
C866        C  0.86115737  0.74293612  0.16401603     0.36800
N867        N  0.96540824  0.68449893  0.28225849    -0.43400
N868        N  0.84403048  0.75245407  0.14346830    -0.43400
C869        C  0.30441639  0.44965646  0.78755167     0.00100
C870        C  0.27135713  0.44207553  0.78155809    -0.11700
C871        C  0.26196938  0.41003583  0.77308841     0.02400
C872        C  0.28609960  0.38496806  0.76993125     0.00100
C873        C  0.31932673  0.39322341  0.77417001    -0.11700
C874        C  0.32859618  0.42504541  0.78291124     0.02300
H875        H  0.25259727  0.46074099  0.78533442     0.15200
H876        H  0.33824168  0.37457566  0.77114387     0.15300
C877        C  0.36320064  0.43176520  0.78702426     0.36900
C878        C  0.22727225  0.40322592  0.77019810     0.36800
N879        N  0.39090436  0.43716944  0.79036695    -0.43400
N880        N  0.19946277  0.39769551  0.76805353    -0.43400
C881        C  0.38070868  0.23759280  0.71408739     0.00100
C882        C  0.40654572  0.24013278  0.73681547    -0.11700
C883        C  0.43873241  0.23012968  0.72871083     0.02400
C884        C  0.44565823  0.21729994  0.69720191     0.00100
C885        C  0.42028535  0.21635742  0.67405058    -0.11700
C886        C  0.38828530  0.22642873  0.68196426     0.02300
H887        H  0.40143432  0.24883786  0.76146383     0.15200
H888        H  0.42537657  0.20725338  0.64952159     0.15300
C889        C  0.36401497  0.22496917  0.65627612     0.36900
C890        C  0.46355172  0.23142351  0.75384393     0.36800
N891        N  0.34470597  0.22373387  0.63558184    -0.43400
N892        N  0.48353217  0.23236580  0.77391013    -0.43400
C893        C  0.23196203  0.13796569  0.72215627     0.00100
C894        C  0.22651029  0.11403661  0.74663502    -0.11700
C895        C  0.21802063  0.08161880  0.73843514     0.02400
C896        C  0.21422437  0.07283627  0.70518558     0.00100
C897        C  0.22044549  0.09652520  0.68081795    -0.11700
C898        C  0.22932094  0.12862144  0.68882092     0.02300
H899        H  0.22864225  0.12071531  0.77227362     0.15200
H900        H  0.21765022  0.09008613  0.65516349     0.15300
C901        C  0.23380988  0.15168035  0.66209221     0.36900
C902        C  0.21181758  0.05840155  0.76458185     0.36800
N903        N  0.23742841  0.17006322  0.64063287    -0.43400
N904        N  0.20693169  0.03974243  0.78554000    -0.43400
C905        C  0.06599655  0.29328198  0.79495476     0.00100
C906        C  0.07836071  0.30221622  0.76408234    -0.11700
C907        C  0.11142043  0.29650435  0.75581017     0.02400
C908        C  0.13264346  0.28078562  0.77851078     0.00100
C909        C  0.11973109  0.27082322  0.80907189    -0.11700
C910        C  0.08686519  0.27743159  0.81759051     0.02300
H911        H  0.06249039  0.31499260  0.74690981     0.15200
H912        H  0.13561222  0.25886501  0.82678642     0.15300
C913        C  0.07507177  0.26826720  0.84988472     0.36900
C914        C  0.12276034  0.30715102  0.72383748     0.36800
N915        N  0.06538882  0.26108148  0.87570759    -0.43400
N916        N  0.13183954  0.31585558  0.69826805    -0.43400
C917        C  0.22948191  0.28963370  0.62642291     0.00100
C918        C  0.23480224  0.26615059  0.60155353    -0.11700
C919        C  0.22489382  0.27204879  0.56903245     0.02400
C920        C  0.20911835  0.30197832  0.56083417     0.00100
C921        C  0.20520276  0.32587719  0.58535133    -0.11700
C922        C  0.21516087  0.32019372  0.61760458     0.02300
H923        H  0.24596697  0.24268343  0.60762505     0.15200
H924        H  0.19392202  0.34933782  0.57939912     0.15300
C925        C  0.21025120  0.34656705  0.64081767     0.36900
C926        C  0.23002047  0.24641737  0.54510350     0.36800
N927        N  0.20622626  0.36773866  0.65932985    -0.43400
N928        N  0.23421086  0.22593064  0.52587001    -0.43400
C929        C  0.28391370  0.23499948  0.87267489     0.00100
C930        C  0.25821421  0.23053808  0.89563737    -0.11700
C931        C  0.26482843  0.22307359  0.92868473     0.02400
C932        C  0.29770559  0.21965796  0.93913328     0.00100
C933        C  0.32325288  0.22481463  0.91634916    -0.11700
C934        C  0.31677899  0.23233027  0.88353994     0.02300
H935        H  0.23287911  0.23256651  0.88769052     0.15200
H936        H  0.34860954  0.22192584  0.92404302     0.15300
C937        C  0.34448919  0.23498973  0.86127413     0.36900
C938        C  0.23753677  0.21716233  0.95077733     0.36800
N939        N  0.36672232  0.23698969  0.84347233    -0.43400
N940        N  0.21565150  0.21239931  0.96847706    -0.43400
C941        C  0.77815203  0.28008661  0.62478923     0.00100
C942        C  0.75243225  0.28903788  0.60345136    -0.11700
C943        C  0.75876180  0.29770476  0.57052529     0.02400
C944        C  0.79140784  0.29827920  0.55854642     0.00100
C945        C  0.81701814  0.28942794  0.57968603    -0.11700
C946        C  0.81081609  0.28002629  0.61222713     0.02300
H947        H  0.72725863  0.28922103  0.61245030     0.15200
H948        H  0.84220854  0.28996810  0.57067838     0.15300
C949        C  0.83884306  0.27138837  0.63213120     0.36900
C950        C  0.73155354  0.30714223  0.54990938     0.36800
N951        N  0.86138171  0.26431037  0.64789074    -0.43400
N952        N  0.70977505  0.31464932  0.53330976    -0.43400
C953        C  0.72451851  0.37682593  0.77027797     0.00100
C954        C  0.72932807  0.38922063  0.80209089    -0.11700
C955        C  0.71883136  0.42084874  0.81074060     0.02400
C956        C  0.70328760  0.44118638  0.78740644     0.00100
C957        C  0.70006847  0.42988777  0.75512054    -0.11700
C958        C  0.71046369  0.39803439  0.74635396     0.02300
H959        H  0.74044382  0.37381297  0.82077012     0.15200
H960        H  0.68825532  0.44549557  0.73702940     0.15300
C961        C  0.70634380  0.38800575  0.71267912     0.36900
C962        C  0.72417673  0.43192810  0.84391807     0.36800
N963        N  0.70306097  0.38007707  0.68564703    -0.43400
N964        N  0.72850891  0.44089515  0.87045511    -0.43400
C965        C  0.80526864  0.06192125  0.71798592     0.00100
C966        C  0.77201854  0.07112216  0.71615689    -0.11700
C967        C  0.76223480  0.10384510  0.72155620     0.02400
C968        C  0.78585727  0.12783610  0.72962671     0.00100
C969        C  0.81891525  0.11833920  0.73251612    -0.11700
C970        C  0.82874774  0.08583872  0.72684937     0.02300
H971        H  0.75398412  0.05326718  0.70834839     0.15200
H972        H  0.83722556  0.13648423  0.73896732     0.15300
C973        C  0.86326643  0.07775209  0.72986311     0.36900
C974        C  0.72843681  0.11282013  0.71554205     0.36800
N975        N  0.89091015  0.07127593  0.73217247    -0.43400
N976        N  0.70147073  0.12017521  0.71021761    -0.43400
C977        C  0.63162364  0.22418021  0.72701203     0.00100
C978        C  0.61103511  0.24830962  0.71300516    -0.11700
C979        C  0.57891781  0.24091901  0.70327080     0.02400
C980        C  0.56700334  0.20867382  0.70687948     0.00100
C981        C  0.58673803  0.18492490  0.72213622    -0.11700
C982        C  0.61849152  0.19239465  0.73276645     0.02300
H983        H  0.62020788  0.27299119  0.70900342     0.15200
H984        H  0.57735838  0.16019215  0.72541472     0.15300
C985        C  0.63678035  0.16650944  0.74881176     0.36900
C986        C  0.55943444  0.26636981  0.68798976     0.36800
N987        N  0.65090142  0.14558057  0.76196714    -0.43400
N988        N  0.54389121  0.28686650  0.67579801    -0.43400
C989        C  0.73343617  0.22325277  0.87403460     0.00100
C990        C  0.73241930  0.18961927  0.88182517    -0.11700
C991        C  0.72361412  0.17879322  0.91326558     0.02400
C992        C  0.71546507  0.20178452  0.93792004     0.00100
C993        C  0.71817005  0.23543659  0.93089664    -0.11700
C994        C  0.72692585  0.24636168  0.89923896     0.02300
H995        H  0.73808934  0.17155711  0.86307810     0.15200
H996        H  0.71162161  0.25322687  0.94962679     0.15300
C997        C  0.72668265  0.28127546  0.89291230     0.36900
C998        C  0.72303843  0.14382747  0.91956798     0.36800
N999        N  0.72631472  0.30929858  0.88800093    -0.43400
N1000       N  0.72256440  0.11583785  0.92464929    -0.43400
C1001       C  0.87841636  0.27306107  0.77799893     0.00100
C1002       C  0.90231634  0.27534404  0.75286061    -0.11700
C1003       C  0.93495101  0.28396558  0.75990108     0.02400
C1004       C  0.94391233  0.29059509  0.79256606     0.00100
C1005       C  0.92065003  0.28587434  0.81775616    -0.11700
C1006       C  0.88831822  0.27704248  0.81090245     0.02300
H1007       H  0.89524201  0.27165481  0.72752731     0.15200
H1008       H  0.92768164  0.28971584  0.84309224     0.15300
C1009       C  0.86614914  0.27171630  0.83829152     0.36900
C1010       C  0.95812296  0.28746293  0.73312288     0.36800
N1011       N  0.84856944  0.26731758  0.86033921    -0.43400
N1012       N  0.97662030  0.29005343  0.71154270    -0.43400
C1013       C  0.19704233  0.71261466  0.56259960     0.00100
C1014       C  0.17249313  0.72035424  0.58576215    -0.11700
C1015       C  0.18044880  0.73002839  0.61771336     0.02400
C1016       C  0.21378313  0.73132257  0.62745912     0.00100
C1017       C  0.23839202  0.72405024  0.60403555    -0.11700
C1018       C  0.23032222  0.71520046  0.57175400     0.02300
H1019       H  0.14684108  0.71860760  0.57888116     0.15200
H1020       H  0.26406402  0.72518289  0.61098827     0.15300
C1021       C  0.25656192  0.70751974  0.54894919     0.36900
C1022       C  0.15372571  0.73712441  0.64021202     0.36800
N1023       N  0.27760646  0.70145322  0.53063536    -0.43400
N1024       N  0.13224344  0.74292820  0.65810958    -0.43400
C1025       C  0.43479514  0.78518111  0.69979314     0.00100
C1026       C  0.42441890  0.79037496  0.73220650    -0.11700
C1027       C  0.39193387  0.78388049  0.74172745     0.02400
C1028       C  0.36922468  0.77208751  0.71843374     0.00100
C1029       C  0.38043380  0.76459328  0.68660594    -0.11700
C1030       C  0.41296590  0.77113343  0.67716198     0.02300
H1031       H  0.44134493  0.80079500  0.74977072     0.15200
H1032       H  0.36350174  0.75470404  0.66875850     0.15300
C1033       C  0.42364979  0.76308584  0.64425455     0.36900
C1034       C  0.38274895  0.78903032  0.77564979     0.36800
N1035       N  0.43255147  0.75642894  0.61805022    -0.43400
N1036       N  0.37549294  0.79294660  0.80288677    -0.43400
C1037       C  0.05509850  0.72107116  0.79469425     0.00100
C1038       C  0.07657017  0.72943582  0.82013313    -0.11700
C1039       C  0.10886910  0.73936182  0.81366549     0.02400
C1040       C  0.12032944  0.74173071  0.78090981     0.00100
C1041       C  0.09805752  0.73584098  0.75529281    -0.11700
C1042       C  0.06577245  0.72522192  0.76190180     0.02300
H1043       H  0.06836677  0.72712150  0.84539352     0.15200
H1044       H  0.10647128  0.73754631  0.73002274     0.15300
C1045       C  0.04525221  0.71599930  0.73472649     0.36900
C1046       C  0.12966830  0.74654476  0.84128879     0.36800
N1047       N  0.02892360  0.70840756  0.71289938    -0.43400
N1048       N  0.14609347  0.75218071  0.86363117    -0.43400
C1049       C  0.27126231  0.63555373  0.77841396     0.00100
C1050       C  0.27778876  0.61180486  0.75415205    -0.11700
C1051       C  0.28815563  0.57987053  0.76258918     0.02400
C1052       C  0.29223010  0.57119119  0.79594273     0.00100
C1053       C  0.28537373  0.59483617  0.82008484    -0.11700
C1054       C  0.27517342  0.62661096  0.81179252     0.02300
H1055       H  0.27523543  0.61832500  0.72846049     0.15200
H1056       H  0.28866782  0.58866593  0.84578982     0.15300
C1057       C  0.27095483  0.64991228  0.83820826     0.36900
C1058       C  0.29636185  0.55729984  0.73650919     0.36800
N1059       N  0.26773545  0.66851075  0.85943167    -0.43400
N1060       N  0.30307597  0.53928057  0.71556876    -0.43400
C1061       C  0.29856433  0.79990959  0.93753620     0.00100
C1062       C  0.27157301  0.77914133  0.93257024    -0.11700
C1063       C  0.26111193  0.77099470  0.90079389     0.02400
C1064       C  0.27735725  0.78428047  0.87280021     0.00100
C1065       C  0.30507618  0.80403275  0.87784719    -0.11700
C1066       C  0.31610021  0.81143405  0.90942113     0.02300
H1067       H  0.25813265  0.76959309  0.95360070     0.15200
H1068       H  0.31873051  0.81349848  0.85689569     0.15300
C1069       C  0.34626469  0.83000601  0.91157770     0.36900
C1070       C  0.23348736  0.74908369  0.89804154     0.36800
N1071       N  0.37054183  0.84470982  0.91280906    -0.43400
N1072       N  0.21155096  0.73119980  0.89603079    -0.43400
C1073       C  0.21939062  0.88384763  0.72794191     0.00100
C1074       C  0.24381875  0.90833627  0.72935751    -0.11700
C1075       C  0.23675884  0.94131079  0.72125850     0.02400
C1076       C  0.20470600  0.95030343  0.71133815     0.00100
C1077       C  0.18010345  0.92618887  0.71157904    -0.11700
C1078       C  0.18692426  0.89354008  0.71982929     0.02300
H1079       H  0.26876898  0.90160542  0.73589300     0.15200
H1080       H  0.15516878  0.93281008  0.70478880     0.15300
C1081       C  0.15968375  0.87083827  0.71997527     0.36900
C1082       C  0.26316212  0.96490458  0.72183051     0.36800
N1083       N  0.13777043  0.85276887  0.72007699    -0.43400
N1084       N  0.28432450  0.98382979  0.72239921    -0.43400
C1085       C  0.76823959  0.72059257  0.62643059     0.00100
C1086       C  0.74382351  0.70725423  0.60604283    -0.11700
C1087       C  0.75119856  0.69703752  0.57384684     0.02400
C1088       C  0.78354531  0.69993766  0.56145116     0.00100
C1089       C  0.80775347  0.71364810  0.58138998    -0.11700
C1090       C  0.80059519  0.72398830  0.61337910     0.02300
H1091       H  0.71894975  0.70433023  0.61536309     0.15200
H1092       H  0.83267402  0.71597000  0.57196411     0.15300
C1093       C  0.82756941  0.73687737  0.63225226     0.36900
C1094       C  0.72568509  0.68188360  0.55472637     0.36800
N1095       N  0.84921852  0.74719976  0.64730569    -0.43400
N1096       N  0.70532866  0.66957242  0.53939298    -0.43400
C1097       C  0.69524653  0.56339927  0.78956878     0.00100
C1098       C  0.69486761  0.58751616  0.81427304    -0.11700
C1099       C  0.70313774  0.62016324  0.80752299     0.02400
C1100       C  0.71241701  0.62950209  0.77540224     0.00100
C1101       C  0.71287012  0.60554646  0.75056381    -0.11700
C1102       C  0.70450845  0.57268713  0.75738443     0.02300
H1103       H  0.68751120  0.58097690  0.83909599     0.15200
H1104       H  0.71971012  0.61254286  0.72573202     0.15300
C1105       C  0.70400820  0.54951187  0.73067767     0.36900
C1106       C  0.69979938  0.64394214  0.83362352     0.36800
N1107       N  0.70349961  0.53093557  0.70924887    -0.43400
N1108       N  0.69682829  0.66297979  0.85448687    -0.43400
C1109       C  0.62026844  0.77954901  0.72901493     0.00100
C1110       C  0.59875975  0.75502840  0.71785366    -0.11700
C1111       C  0.56627195  0.76259164  0.70922407     0.02400
C1112       C  0.55500198  0.79531664  0.71112661     0.00100
C1113       C  0.57579272  0.81952920  0.72351189    -0.11700
C1114       C  0.60796273  0.81201332  0.73285833     0.02300
H1115       H  0.60747678  0.72994955  0.71525304     0.15200
H1116       H  0.56702338  0.84469699  0.72518497     0.15300
C1117       C  0.62784877  0.83867904  0.74487272     0.36900
C1118       C  0.54564278  0.73679134  0.69665000     0.36800
N1119       N  0.64358131  0.86013057  0.75461756    -0.43400
N1120       N  0.52895943  0.71621953  0.68661293    -0.43400
C1121       C  0.72516091  0.78170730  0.87522502     0.00100
C1122       C  0.71751765  0.75633226  0.89754556    -0.11700
C1123       C  0.70790775  0.76325451  0.93007091     0.02400
C1124       C  0.70665537  0.79605877  0.94111478     0.00100
C1125       C  0.71551020  0.82128473  0.91919008    -0.11700
C1126       C  0.72458654  0.81451207  0.88663327     0.02300
H1127       H  0.71728209  0.73110290  0.88907808     0.15200
H1128       H  0.71448225  0.84662155  0.92734923     0.15300
C1129       C  0.73310041  0.84182697  0.86551892     0.36900
C1130       C  0.69635190  0.73657768  0.95040343     0.36800
N1131       N  0.73984470  0.86372693  0.84859683    -0.43400
N1132       N  0.68660854  0.71494334  0.96613235    -0.43400
C1133       C  0.77350589  0.87478492  0.71955611     0.00100
C1134       C  0.76841961  0.90041698  0.74210573    -0.11700
C1135       C  0.77894868  0.93264471  0.73522109     0.02400
C1136       C  0.79447497  0.93998414  0.70479514     0.00100
C1137       C  0.79753018  0.91457165  0.68157664    -0.11700
C1138       C  0.78760109  0.88240132  0.68864638     0.02300
H1139       H  0.75742820  0.89499306  0.76584832     0.15200
H1140       H  0.80814817  0.91968602  0.65763712     0.15300
C1141       C  0.79195215  0.85786488  0.66339396     0.36900
C1142       C  0.77486814  0.95693998  0.76063698     0.36800
N1143       N  0.79556762  0.83832727  0.64309136    -0.43400
N1144       N  0.77147092  0.97613759  0.78128614    -0.43400
C1145       C  0.86664769  0.72122224  0.77411795     0.00100
C1146       C  0.89238913  0.74298143  0.76627393    -0.11700
C1147       C  0.92535456  0.73500828  0.77302071     0.02400
C1148       C  0.93323999  0.70426574  0.78735656     0.00100
C1149       C  0.90744760  0.68193108  0.79344585    -0.11700
C1150       C  0.87461429  0.69013841  0.78739223     0.02300
H1151       H  0.88665131  0.76684649  0.75580763     0.15200
H1152       H  0.91275599  0.65788950  0.80373101     0.15300
C1153       C  0.84976785  0.66583884  0.79476450     0.36900
C1154       C  0.95006185  0.75957542  0.76645560     0.36800
N1155       N  0.82994706  0.64635327  0.80082282    -0.43400
N1156       N  0.96984030  0.77935048  0.76132029    -0.43400
C1157       C  0.35829831  0.87617451  0.00763315     0.00100
C1158       C  0.36394985  0.89525224  0.97920460    -0.11700
C1159       C  0.38877048  0.91874599  0.97811937     0.02400
C1160       C  0.40814717  0.92392049  0.00595072     0.00100
C1161       C  0.40172496  0.90655048  0.03491626    -0.11700
C1162       C  0.37686673  0.88295551  0.03619999     0.02300
H1163       H  0.34939028  0.89147959  0.95738336     0.15200
H1164       H  0.41643583  0.91132489  0.05648595     0.15300
C1165       C  0.37163593  0.86631705  0.06713607     0.36900
C1166       C  0.39468604  0.93667026  0.94798110     0.36800
N1167       N  0.36764240  0.85348000  0.09223703    -0.43400
N1168       N  0.39969429  0.95109088  0.92393694    -0.43400
C1169       C  0.41386977  0.09322996  0.00269040     0.00100
C1170       C  0.39150528  0.09477083  0.97675616    -0.11700
C1171       C  0.36677215  0.11872974  0.97609372     0.02400
C1172       C  0.36419281  0.14190452  0.00182606     0.00100
C1173       C  0.38636196  0.13994960  0.02809515    -0.11700
C1174       C  0.41118083  0.11594252  0.02861984     0.02300
H1175       H  0.39329166  0.07695726  0.95706822     0.15200
H1176       H  0.38462842  0.15750788  0.04800103     0.15300
C1177       C  0.43352156  0.11486918  0.05598592     0.36900
C1178       C  0.34362178  0.11799946  0.94937456     0.36800
N1179       N  0.45155117  0.11397526  0.07782468    -0.43400
N1180       N  0.32502015  0.11739072  0.92801590    -0.43400
C1181       C  0.57889266  0.91426045  0.99902861     0.00100
C1182       C  0.58005671  0.89238314  0.02563807    -0.11700
C1183       C  0.60412209  0.86769296  0.02718529     0.02400
C1184       C  0.62776531  0.86460982  0.00159846     0.00100
C1185       C  0.62615062  0.88642613  0.97477203    -0.11700
C1186       C  0.60210235  0.91108887  0.97336322     0.02300
H1187       H  0.56213971  0.89477480  0.04536685     0.15200
H1188       H  0.64403201  0.88457739  0.95496761     0.15300
C1189       C  0.60171844  0.93301907  0.94542414     0.36900
C1190       C  0.60316856  0.84547531  0.05489329     0.36800
N1191       N  0.60137127  0.95078832  0.92319034    -0.43400
N1192       N  0.60225218  0.82774464  0.07715461    -0.43400
C1193       C  0.63295692  0.13368468  0.99412660     0.00100
C1194       C  0.62151680  0.12036956  0.02409281    -0.11700
C1195       C  0.59702712  0.09653831  0.02481271     0.02400
C1196       C  0.58415120  0.08485738  0.99521138     0.00100
C1197       C  0.59523746  0.09771558  0.96527589    -0.11700
C1198       C  0.61896866  0.12242443  0.96440418     0.02300
H1199       H  0.63149760  0.12860823  0.04723373     0.15200
H1200       H  0.58453901  0.08901813  0.94259736     0.15300
C1201       C  0.62699417  0.13646831  0.93275724     0.36900
C1202       C  0.58520138  0.08442433  0.05612531     0.36800
N1203       N  0.63304274  0.14781666  0.90733933    -0.43400
N1204       N  0.57551936  0.07446958  0.08101211    -0.43400
C1205       C  0.00153929  0.41845402  0.91065028     0.00100
C1206       C  0.97169992  0.40543611  0.90003914    -0.11700
C1207       C  0.97103755  0.38022434  0.87689712     0.02400
C1208       C  0.00096119  0.36853531  0.86279954     0.00100
C1209       C  0.03081670  0.38222707  0.87343778    -0.11700
C1210       C  0.03131290  0.40653419  0.89749271     0.02300
H1211       H  0.94885191  0.41440493  0.91074380     0.15200
H1212       H  0.05406425  0.37373857  0.86331060     0.15300
C1213       C  0.06262618  0.41873312  0.90857832     0.36900
C1214       C  0.93927949  0.36629865  0.86968340     0.36800
N1215       N  0.08765038  0.42864636  0.91748434    -0.43400
N1216       N  0.91364006  0.35527755  0.86449239    -0.43400
C1217       C  0.00166939  0.36501562  0.12851385     0.00100
C1218       C  0.97309446  0.38440337  0.12534970    -0.11700
C1219       C  0.97114740  0.40940047  0.10175148     0.02400
C1220       C  0.99811548  0.41544207  0.08074617     0.00100
C1221       C  0.02652785  0.39602860  0.08347344    -0.11700
C1222       C  0.02853257  0.37090753  0.10697945     0.02300
H1223       H  0.95219270  0.38019698  0.14150239     0.15200
H1224       H  0.04710637  0.40041721  0.06694551     0.15300
C1225       C  0.05787730  0.35079961  0.10735791     0.36900
C1226       C  0.94106202  0.42817812  0.09913289     0.36800
N1227       N  0.08137099  0.33463768  0.10755514    -0.43400
N1228       N  0.91687456  0.44311194  0.09703374    -0.43400
C1229       C  0.99954327  0.58858820  0.91119021     0.00100
C1230       C  0.02249297  0.61415927  0.91237980    -0.11700
C1231       C  0.02220391  0.63941953  0.88902838     0.02400
C1232       C  0.99937795  0.63859908  0.86298904     0.00100
C1233       C  0.97646719  0.61283880  0.86186609    -0.11700
C1234       C  0.97613334  0.58819776  0.88582959     0.02300
H1235       H  0.04016221  0.61477478  0.93219645     0.15200
H1236       H  0.95857684  0.61196810  0.84226842     0.15300
C1237       C  0.95113337  0.56313971  0.88427924     0.36900
C1238       C  0.04400526  0.66682941  0.89398983     0.36800
N1239       N  0.93116109  0.54300893  0.88305466    -0.43400
N1240       N  0.06128890  0.68882152  0.89862500    -0.43400
C1241       C  0.99803525  0.58654348  0.08175183     0.00100
C1242       C  0.97230290  0.58707893  0.10482743    -0.11700
C1243       C  0.97131594  0.61077702  0.12958459     0.02400
C1244       C  0.99603400  0.63506004  0.13089597     0.00100
C1245       C  0.02199579  0.63414845  0.10788713    -0.11700
C1246       C  0.02336829  0.60995056  0.08368719     0.02300
H1247       H  0.95320123  0.56858921  0.10370677     0.15200
H1248       H  0.04141773  0.65230734  0.10886374     0.15300
C1249       C  0.05140909  0.60901037  0.06170015     0.36900
C1250       C  0.94590004  0.60826614  0.15440241     0.36800
N1251       N  0.07396969  0.60813283  0.04421875    -0.43400
N1252       N  0.92577687  0.60610660  0.17453334    -0.43400
C1253       C  0.37269422  0.50213809  0.14800293     0.00100
C1254       C  0.38029866  0.47288899  0.13107188    -0.11700
C1255       C  0.40318365  0.47251058  0.10528602     0.02400
C1256       C  0.41891278  0.50174578  0.09576837     0.00100
C1257       C  0.41207564  0.53085106  0.11269763    -0.11700
C1258       C  0.38933779  0.53138899  0.13869198     0.02300
H1259       H  0.36813795  0.45012528  0.13767141     0.15200
H1260       H  0.42464165  0.55324702  0.10551134     0.15300
C1261       C  0.38446140  0.56226040  0.15542369     0.36900
C1262       C  0.41041439  0.44183218  0.08902354     0.36800
N1263       N  0.38088196  0.58721345  0.16853754    -0.43400
N1264       N  0.41637351  0.41726079  0.07602817    -0.43400
C1265       C  0.64148260  0.50046647  0.13041893     0.00100
C1266       C  0.62863148  0.53067462  0.11914930    -0.11700
C1267       C  0.60316503  0.53182242  0.09623124     0.02400
C1268       C  0.58992840  0.50245533  0.08409023     0.00100
C1269       C  0.60271974  0.47232984  0.09464669    -0.11700
C1270       C  0.62818221  0.47093232  0.11753874     0.02300
H1271       H  0.63836426  0.55364121  0.12822960     0.15200
H1272       H  0.59253966  0.44976148  0.08500401     0.15300
C1273       C  0.63959890  0.43865153  0.12707296     0.36900
C1274       C  0.59099646  0.56337475  0.08533831     0.36800
N1275       N  0.64860988  0.41268697  0.13455124    -0.43400
N1276       N  0.58125685  0.58861788  0.07646542    -0.43400
C1277       C  0.36328843  0.51046838  0.87256233     0.00100
C1278       C  0.36974483  0.48041288  0.88862473    -0.11700
C1279       C  0.39208180  0.47848553  0.91454439     0.02400
C1280       C  0.40863270  0.50688294  0.92479457     0.00100
C1281       C  0.40185013  0.53701040  0.90961355    -0.11700
C1282       C  0.37939252  0.53917395  0.88380036     0.02300
H1283       H  0.35753243  0.45816773  0.88081803     0.15200
H1284       H  0.41484082  0.55880447  0.91749552     0.15300
C1285       C  0.37464965  0.57103588  0.86881189     0.36900
C1286       C  0.39836377  0.44702160  0.92977935     0.36800
N1287       N  0.37091504  0.59665448  0.85695490    -0.43400
N1288       N  0.40343574  0.42185409  0.94208132    -0.43400
C1289       C  0.57901304  0.49998843  0.91369460     0.00100
C1290       C  0.59360795  0.47008125  0.90476251    -0.11700
C1291       C  0.61636623  0.46844737  0.87878301     0.02400
C1292       C  0.62479783  0.49742222  0.86113899     0.00100
C1293       C  0.60965036  0.52728103  0.87039644    -0.11700
C1294       C  0.58711800  0.52873656  0.89636280     0.02300
H1295       H  0.58722733  0.44797198  0.91828841     0.15200
H1296       H  0.61542916  0.54988448  0.85748068     0.15300
C1297       C  0.57287088  0.56010035  0.90512275     0.36900
C1298       C  0.63072359  0.43676720  0.87153602     0.36800
N1299       N  0.56151815  0.58524183  0.91218727    -0.43400
N1300       N  0.64209380  0.41125584  0.86594335    -0.43400
C1301       C  0.08348202  0.58373656  0.49473503     0.00100
C1302       C  0.08185499  0.60546701  0.52130822    -0.11700
C1303       C  0.10438198  0.63116438  0.52420066     0.02400
C1304       C  0.12929674  0.63532063  0.50012296     0.00100
C1305       C  0.13104650  0.61312490  0.47373348    -0.11700
C1306       C  0.10845804  0.58746308  0.47092159     0.02300
H1307       H  0.06239856  0.60269479  0.53947481     0.15200
H1308       H  0.15005903  0.61588375  0.45511742     0.15300
C1309       C  0.11076341  0.56577041  0.44301063     0.36900
C1310       C  0.10005344  0.65375285  0.55113819     0.36800
N1311       N  0.11253797  0.54829318  0.42071557    -0.43400
N1312       N  0.09629507  0.67175821  0.57277580    -0.43400
C1313       C  0.12761961  0.36230221  0.49540004     0.00100
C1314       C  0.12562959  0.38208913  0.46708323    -0.11700
C1315       C  0.10205655  0.40706095  0.46461014     0.02400
C1316       C  0.07988129  0.41254658  0.49068390     0.00100
C1317       C  0.08101437  0.39234774  0.51857978    -0.11700
C1318       C  0.10455112  0.36726057  0.52113850     0.02300
H1319       H  0.14292159  0.37849381  0.44700355     0.15200
H1320       H  0.06341247  0.39623351  0.53834918     0.15300
C1321       C  0.10358714  0.34632572  0.54982941     0.36900
C1322       C  0.10084230  0.42674443  0.43508544     0.36800
N1323       N  0.10269512  0.32947743  0.57276469    -0.43400
N1324       N  0.09967054  0.44258933  0.41147905    -0.43400
C1325       C  0.91074840  0.41711957  0.48712034     0.00100
C1326       C  0.88739338  0.41577471  0.46211277    -0.11700
C1327       C  0.86217012  0.39247557  0.46304587     0.02400
C1328       C  0.85999192  0.37004878  0.48971099     0.00100
C1329       C  0.88361567  0.37165196  0.51471479    -0.11700
C1330       C  0.90886693  0.39483465  0.51354935     0.02300
H1331       H  0.88886394  0.43312171  0.44187449     0.15200
H1332       H  0.88255385  0.35459181  0.53519856     0.15300
C1333       C  0.93247440  0.39564660  0.53985451     0.36900
C1334       C  0.83853136  0.39309699  0.43676660     0.36800
N1335       N  0.95160094  0.39645669  0.56073148    -0.43400
N1336       N  0.81982857  0.39384032  0.41549339    -0.43400
C1337       C  0.91348423  0.58730403  0.49086389     0.00100
C1338       C  0.91055606  0.60742670  0.51854499    -0.11700
C1339       C  0.88471458  0.63015616  0.52138573     0.02400
C1340       C  0.86078823  0.63248954  0.49628824     0.00100
C1341       C  0.86485768  0.61304185  0.46797949    -0.11700
C1342       C  0.89096501  0.59079653  0.46506594     0.02300
H1343       H  0.92835572  0.60506321  0.53813182     0.15200
H1344       H  0.84733834  0.61474051  0.44810268     0.15300
C1345       C  0.89432814  0.57176466  0.43536443     0.36900
C1346       C  0.88416772  0.65113424  0.54989001     0.36800
N1347       N  0.89726683  0.55657475  0.41155684    -0.43400
N1348       N  0.88402425  0.66797790  0.57272041    -0.43400
C1349       C  0.50711072  0.08578778  0.58536373     0.00100
C1350       C  0.48171653  0.08695488  0.60875487    -0.11700
C1351       C  0.48136029  0.11090007  0.63326039     0.02400
C1352       C  0.50707026  0.13414536  0.63478246     0.00100
C1353       C  0.53300510  0.13231304  0.61181827    -0.11700
C1354       C  0.53304225  0.10858636  0.58701224     0.02300
H1355       H  0.46189420  0.06923554  0.60757996     0.15200
H1356       H  0.55280325  0.15006893  0.61263047     0.15300
C1357       C  0.55953832  0.10842824  0.56320850     0.36900
C1358       C  0.45462725  0.11050668  0.65680512     0.36800
N1359       N  0.58064684  0.10849843  0.54398581    -0.43400
N1360       N  0.43310278  0.11007040  0.67555790    -0.43400
C1361       C  0.50070345  0.13578487  0.36737208     0.00100
C1362       C  0.47197614  0.11678547  0.37073307    -0.11700
C1363       C  0.46961821  0.09204808  0.39453309     0.02400
C1364       C  0.49627671  0.08598542  0.41554690     0.00100
C1365       C  0.52485641  0.10483166  0.41253571    -0.11700
C1366       C  0.52734210  0.12962308  0.38884354     0.02300
H1367       H  0.45128594  0.12103752  0.35459075     0.15200
H1368       H  0.54523869  0.10020793  0.42899491     0.15300
C1369       C  0.55716366  0.14878199  0.38810379     0.36900
C1370       C  0.43951979  0.07348039  0.39727203     0.36800
N1371       N  0.58112291  0.16404964  0.38762227    -0.43400
N1372       N  0.41537416  0.05863708  0.39945308    -0.43400
C1373       C  0.49288611  0.91454748  0.41702327     0.00100
C1374       C  0.46735935  0.91248315  0.39419264    -0.11700
C1375       C  0.46698268  0.88740076  0.37071347     0.02400
C1376       C  0.49268913  0.86380577  0.36985039     0.00100
C1377       C  0.51844069  0.86635590  0.39254936    -0.11700
C1378       C  0.51869243  0.89133321  0.41600479     0.02300
H1379       H  0.44763220  0.93050707  0.39483659     0.15200
H1380       H  0.53835477  0.84853819  0.39224909     0.15300
C1381       C  0.54570913  0.89272961  0.43878900     0.36900
C1382       C  0.44050446  0.88724357  0.34728083     0.36800
N1383       N  0.56724082  0.89381999  0.45717483    -0.43400
N1384       N  0.41926912  0.88714737  0.32851069    -0.43400
C1385       C  0.49539161  0.86598585  0.63413018     0.00100
C1386       C  0.52543755  0.87421226  0.61878494    -0.11700
C1387       C  0.52699279  0.89880949  0.59477572     0.02400
C1388       C  0.49832895  0.91622829  0.58630212     0.00100
C1389       C  0.46844067  0.90859102  0.60167916    -0.11700
C1390       C  0.46657285  0.88356455  0.62520063     0.02300
H1391       H  0.54773358  0.86091846  0.62495899     0.15200
H1392       H  0.44637619  0.92197212  0.59482834     0.15300
C1393       C  0.43471685  0.87688532  0.63962174     0.36900
C1394       C  0.55802993  0.90538772  0.57862183     0.36800
N1395       N  0.40908624  0.87146438  0.65091821    -0.43400
N1396       N  0.58283079  0.91065281  0.56553570    -0.43400
loop_ 
_geom_bond_atom_site_label_1 
_geom_bond_atom_site_label_2 
_geom_bond_distance 
_geom_bond_site_symmetry_2 
_ccdc_geom_bond_type 
N1            C6   1.351       .  A
N1            C5   1.353   1_545  A
N1           H33   1.040       .  S
N2            C9   1.349       .  A
N2           C10   1.349       .  A
N3            C8   1.351       .  A
N3            C7   1.351   1_545  A
N3           H34   1.039       .  S
N4           C11   1.349       .  A
N4           C12   1.350       .  A
C5           C13   1.386       .  A
C5           C21   1.413       .  A
C6           C22   1.412       .  A
C6           C14   1.387       .  A
C7           C15   1.387       .  A
C7           C24   1.412       .  A
C8           C23   1.412       .  A
C8           C16   1.387       .  A
C9           C21   1.409       .  A
C9           C17   1.386       .  A
C10          C24   1.409       .  A
C10          C18   1.387       .  A
C11          C19   1.386       .  A
C11          C22   1.409       .  A
C12          C20   1.386       .  A
C12          C23   1.411       .  A
C13          C14   1.376   1_565  A
C13          H25   1.082       .  S
C14          H26   1.082       .  S
C15          C16   1.376   1_565  A
C15          H27   1.082       .  S
C16          H28   1.082       .  S
C17          C18   1.372       .  A
C17          H29   1.082       .  S
C18          H30   1.082       .  S
C19          C20   1.372       .  A
C19          H31   1.082       .  S
C20          H32   1.082       .  S
C21        C1373   1.487       .  S
C22        C1364   1.481       .  S
C23        C1349   1.485       .  S
C24        C1388   1.480       .  S
N35          C40   1.351       .  A
N35          C39   1.351       .  A
N35          H67   1.040       .  S
N36          C43   1.348       .  A
N36          C44   1.348   1_655  A
N37          C42   1.351       .  A
N37          C41   1.352       .  A
N37          H68   1.039       .  S
N38          C45   1.349       .  A
N38          C46   1.348   1_655  A
C39          C47   1.387       .  A
C39          C55   1.411       .  A
C40          C56   1.411       .  A
C40          C48   1.387       .  A
C41          C49   1.387       .  A
C41          C58   1.413       .  A
C42          C57   1.413       .  A
C42          C50   1.387       .  A
C43          C55   1.408       .  A
C43          C51   1.386       .  A
C44          C58   1.407       .  A
C44          C52   1.386       .  A
C45          C53   1.385       .  A
C45          C56   1.407       .  A
C46          C54   1.387       .  A
C46          C57   1.410       .  A
C47          C48   1.376       .  A
C47          H59   1.082       .  S
C48          H60   1.082       .  S
C49          C50   1.377       .  A
C49          H61   1.082       .  S
C50          H62   1.082       .  S
C51          C52   1.373   1_655  A
C51          H63   1.082       .  S
C52          H64   1.082       .  S
C53          C54   1.374   1_655  A
C53          H65   1.082       .  S
C54          H66   1.082       .  S
C55        C1325   1.482       .  S
C56        C1337   1.483       .  S
C57        C1301   1.484       .  S
C58        C1316   1.482       .  S
N69          C74   1.352       .  A
N69          C73   1.352       .  A
N69         H101   1.040       .  S
N70          C77   1.350   1_554  A
N70          C78   1.351       .  A
N71          C76   1.352       .  A
N71          C75   1.352       .  A
N71         H102   1.040       .  S
N72          C79   1.352   1_554  A
N72          C80   1.351       .  A
C73          C81   1.387       .  A
C73          C89   1.414       .  A
C74          C90   1.415       .  A
C74          C82   1.388       .  A
C75          C83   1.387       .  A
C75          C92   1.416       .  A
C76          C91   1.416       .  A
C76          C84   1.388       .  A
C77          C89   1.412       .  A
C77          C85   1.386       .  A
C78          C92   1.412       .  A
C78          C86   1.386       .  A
C79          C87   1.386       .  A
C79          C90   1.413       .  A
C80          C88   1.387       .  A
C80          C91   1.414       .  A
C81          C82   1.373       .  A
C81          H93   1.082       .  S
C82          H94   1.082       .  S
C83          C84   1.374       .  A
C83          H95   1.082       .  S
C84          H96   1.082       .  S
C85          C86   1.371   1_556  A
C85          H97   1.082       .  S
C86          H98   1.082       .  S
C87          C88   1.373   1_556  A
C87          H99   1.082       .  S
C88         H100   1.082       .  S
C89        C1289   1.483       .  S
C90        C1280   1.485       .  S
C91        C1256   1.484       .  S
C92        C1268   1.485       .  S
N103        C108   1.353   1_655  A
N103        C107   1.351   1_655  A
N103        H135   1.039       .  S
N104        C111   1.349   1_556  A
N104        C112   1.351       .  A
N105        C110   1.350   1_655  A
N105        C109   1.351   1_655  A
N105        H136   1.038       .  S
N106        C113   1.351   1_556  A
N106        C114   1.349       .  A
C107        C115   1.387       .  A
C107        C123   1.413   1_455  A
C108        C124   1.413   1_455  A
C108        C116   1.386       .  A
C109        C117   1.386       .  A
C109        C126   1.411       .  A
C110        C125   1.413       .  A
C110        C118   1.389       .  A
C111        C123   1.410       .  A
C111        C119   1.386       .  A
C112        C126   1.411   1_655  A
C112        C120   1.386       .  A
C113        C121   1.385       .  A
C113        C124   1.410       .  A
C114        C122   1.388       .  A
C114        C125   1.412   1_655  A
C115        C116   1.375       .  A
C115        H127   1.082       .  S
C116        H128   1.082       .  S
C117        C118   1.373       .  A
C117        H129   1.082       .  S
C118        H130   1.082       .  S
C119        C120   1.371   1_554  A
C119        H131   1.082       .  S
C120        H132   1.082       .  S
C121        C122   1.371   1_554  A
C121        H133   1.082       .  S
C122        H134   1.082       .  S
C123       C1241   1.483       .  S
C124       C1220   1.487       .  S
C125       C1205   1.479       .  S
C126       C1229   1.488   1_455  S
N137        C142   1.353   1_546  A
N137        C141   1.349   1_556  A
N137        H169   1.038       .  S
N138        C145   1.347       .  A
N138        C146   1.351       .  A
N139        C144   1.348   1_545  A
N139        C143   1.352       .  A
N139        H170   1.038   1_554  S
N140        C147   1.351   1_554  A
N140        C148   1.348   1_554  A
C141        C149   1.389       .  A
C141        C157   1.413   1_554  A
C142        C158   1.412   1_554  A
C142        C150   1.386       .  A
C143        C151   1.386       .  A
C143        C160   1.411       .  A
C144        C159   1.409       .  A
C144        C152   1.388       .  A
C145        C157   1.411       .  A
C145        C153   1.389       .  A
C146        C160   1.409   1_556  A
C146        C154   1.384       .  A
C147        C155   1.385       .  A
C147        C158   1.409       .  A
C148        C156   1.387       .  A
C148        C159   1.410   1_556  A
C149        C150   1.373   1_545  A
C149        H161   1.082       .  S
C150        H162   1.082       .  S
C151        C152   1.374   1_545  A
C151        H163   1.082       .  S
C152        H164   1.082       .  S
C153        C154   1.371       .  A
C153        H165   1.082       .  S
C154        H166   1.082       .  S
C155        C156   1.373       .  A
C155        H167   1.082       .  S
C156        H168   1.082       .  S
C157       C1196   1.474       .  S
C158       C1181   1.489       .  S
C159       C1160   1.473       .  S
C160       C1169   1.487       .  S
O171        C187   1.278       .  A
O171       Zn177   2.036       .  S
C172       C1121   1.493       .  S
C172        O188   1.278       .  A
C172        O185   1.275       .  A
O173        C186   1.275       .  A
O173       Cd180   2.080       .  S
O174        C192   1.273       .  A
O174       Cd183   2.056       .  S
O175        C189   1.275       .  A
O175       Cd179   2.070       .  S
O176        C187   1.274       .  A
O176       Cd179   2.066       .  S
Zn177       O188   2.053       .  S
Zn177       O190   2.028       .  S
Zn177       O182   1.952       .  S
O178        C189   1.276       .  A
O178       Cd183   2.090       .  S
Cd179       O181   2.058       .  S
Cd179       O182   1.994       .  S
Cd180       O184   2.098       .  S
Cd180       O193   2.084       .  S
Cd180       O182   2.019       .  S
O181        C191   1.272       .  A
O182       Cd183   2.000       .  S
Cd183       O185   2.071       .  S
O184        C191   1.278       .  A
C186       C1100   1.484       .  S
C186        O190   1.276       .  A
C187       C1145   1.488       .  S
C189       C1133   1.491       .  S
C191       C1085   1.499       .  S
C192       C1109   1.489       .  S
C192        O193   1.278       .  A
O194        C210   1.276       .  A
O194       Zn200   2.038       .  S
C195       C1073   1.497       .  S
C195        O211   1.276       .  A
C195        O208   1.277       .  A
O196        C209   1.277       .  A
O196       Cd203   2.085       .  S
O197        C215   1.275       .  A
O197       Cd206   2.068       .  S
O198        C212   1.273       .  A
O198       Cd202   2.075       .  S
O199        C210   1.275       .  A
O199       Cd202   2.071       .  S
Zn200       O211   2.024       .  S
Zn200       O213   2.032       .  S
Zn200       O205   1.947       .  S
O201        C212   1.277       .  A
O201       Cd206   2.083       .  S
Cd202       O204   2.065       .  S
Cd202       O205   1.999       .  S
Cd203       O207   2.088       .  S
Cd203       O216   2.076       .  S
Cd203       O205   2.015       .  S
O204        C214   1.275       .  A
O205       Cd206   2.010       .  S
Cd206       O208   2.091       .  S
O207        C214   1.277       .  A
C209       C1016   1.492       .  S
C209        O213   1.276       .  A
C210       C1040   1.488       .  S
C212       C1064   1.498       .  S
C214       C1049   1.490       .  S
C215       C1028   1.481       .  S
C215        O216   1.276       .  A
O217        C233   1.275       .  A
O217       Zn223   2.032       .  S
C218        C989   1.489       .  S
C218        O234   1.276       .  A
C218        O231   1.275       .  A
O219        C232   1.277       .  A
O219       Cd226   2.077       .  S
O220        C238   1.278       .  A
O220       Cd229   2.082       .  S
O221        C235   1.274       .  A
O221       Cd225   2.066       .  S
O222        C233   1.275       .  A
O222       Cd225   2.074       .  S
Zn223       O234   2.023       .  S
Zn223       O236   2.016       .  S
Zn223       O228   1.949       .  S
O224        C235   1.276       .  A
O224       Cd229   2.070       .  S
Cd225       O227   2.071       .  S
Cd225       O228   2.002       .  S
Cd226       O230   2.095       .  S
Cd226       O239   2.088       .  S
Cd226       O228   2.011       .  S
O227        C237   1.275       .  A
O228       Cd229   2.004       .  S
Cd229       O231   2.084       .  S
O230        C237   1.278       .  A
C232        C977   1.492       .  S
C232        O236   1.274       .  A
C233        C968   1.484       .  S
C235       C1001   1.484       .  S
C237        C941   1.497       .  S
C238        C953   1.498       .  S
C238        O239   1.277       .  A
O240        C256   1.275       .  A
O240       Zn246   2.035       .  S
C241        C881   1.495       .  S
C241        O257   1.274       .  A
C241        O254   1.276       .  A
O242        C255   1.278       .  A
O242       Cd249   2.092       .  S
O243        C261   1.276       .  A
O243       Cd252   2.071       .  S
O244        C258   1.275       .  A
O244       Cd248   2.073       .  S
O245        C256   1.273       .  A
O245       Cd248   2.058       .  S
Zn246       O257   2.014       .  S
Zn246       O259   2.006       .  S
Zn246       O251   1.946       .  S
O247        C258   1.276       .  A
O247       Cd252   2.073       .  S
Cd248       O250   2.066       .  S
Cd248       O251   1.994       .  S
Cd249       O253   2.090       .  S
Cd249       O262   2.085       .  S
Cd249       O251   2.017       .  S
O250        C260   1.274       .  A
O251       Cd252   2.002       .  S
Cd252       O254   2.085       .  S
O253        C260   1.277       .  A
C255        C893   1.490       .  S
C255        O259   1.274       .  A
C256        C917   1.495       .  S
C258        C872   1.489       .  S
C260        C908   1.488       .  S
C261        C929   1.488       .  S
C261        O262   1.277       .  A
O263        C279   1.276       .  A
O263       Zn269   2.034       .  S
C264        C860   1.487       .  S
C264        O280   1.274       .  A
C264        O277   1.276       .  A
O265        C278   1.275       .  A
O265       Cd272   2.063       .  S
O266        C284   1.276       .  A
O266       Cd275   2.080       .  S
O267        C281   1.276       .  A
O267       Cd271   2.082       .  S
O268        C279   1.275       .  A
O268       Cd271   2.068       .  S
Zn269       O280   2.014       .  S
Zn269       O282   2.023       .  S
Zn269       O274   1.946       .  S
O270        C281   1.275       .  A
O270       Cd275   2.070       .  S
Cd271       O273   2.073       .  S
Cd271       O274   1.998       .  S
Cd272       O276   2.082       .  S
Cd272       O285   2.068       .  S
Cd272       O274   2.005       .  S
O273        C283   1.276       .  A
O274       Cd275   2.004       .  S
Cd275       O277   2.087       .  S
O276        C283   1.276       .  A
C278        C809   1.487       .  S
C278        O282   1.275       .  A
C279        C821   1.492       .  S
C281        C845   1.497       .  S
C283        C833   1.492       .  S
C284        C797   1.479       .  S
C284        O285   1.274       .  A
O286        C302   1.277       .  A
O286       Zn292   2.040       .  S
C287        C785   1.483       .  S
C287        O303   1.276       .  A
C287        O300   1.274       .  A
O288        C301   1.276       .  A
O288       Cd295   2.075       .  S
O289        C307   1.275       .  A
O289       Cd298   2.073       .  S
O290        C304   1.272       .  A
O290       Cd294   2.053       .  S
O291        C302   1.275       .  A
O291       Cd294   2.090       .  S
Zn292       O303   2.034       .  S
Zn292       O305   2.023       .  S
Zn292       O297   1.950       .  S
O293        C304   1.275       .  A
O293       Cd298   2.077       .  S
Cd294       O296   2.067       .  S
Cd294       O297   2.000       .  S
Cd295       O299   2.074       .  S
Cd295       O308   2.091       .  S
Cd295       O297   2.007       .  S
O296        C306   1.275       .  A
O297       Cd298   2.000       .  S
Cd298       O300   2.050       .  S
O299        C306   1.277       .  A
C301        C740   1.496       .  S
C301        O305   1.275       .  A
C302        C749   1.489       .  S
C304        C764   1.490       .  S
C306        C773   1.479       .  S
C307        C725   1.493       .  S
C307        O308   1.277       .  A
O309        C325   1.273       .  A
O309       Zn315   2.010       .  S
C310        C689   1.495       .  S
C310        O326   1.274       .  A
C310        O323   1.277       .  A
O311        C324   1.276       .  A
O311       Cd318   2.081       .  S
O312        C330   1.278       .  A
O312       Cd321   2.084       .  S
O313        C327   1.272       .  A
O313       Cd317   2.050       .  S
O314        C325   1.273       .  A
O314       Cd317   2.065       .  S
Zn315       O326   2.031       .  S
Zn315       O328   2.005       .  S
Zn315       O320   1.943       .  S
O316        C327   1.278       .  A
O316       Cd321   2.092       .  S
Cd317       O319   2.051       .  S
Cd317       O320   1.992       .  S
Cd318       O322   2.100       .  S
Cd318       O331   2.080       .  S
Cd318       O320   2.008       .  S
O319        C329   1.272       .  A
O320       Cd321   1.998       .  S
Cd321       O323   2.073       .  S
O322        C329   1.279       .  A
C324        C704   1.493       .  S
C324        O328   1.274       .  A
C325        C677   1.492       .  S
C327        C713   1.491       .  S
C329        C665   1.489       .  S
C330        C656   1.493       .  S
C330        O331   1.277       .  A
N332        C337   1.353   1_455  A
N332        C336   1.353       .  A
N332        H364   1.038       .  S
N333        C340   1.350       .  A
N333        C341   1.350       .  A
N334        C339   1.351   1_445  A
N334        C338   1.352   1_545  A
N334        H365   1.038       .  S
N335        C342   1.350       .  A
N335        C343   1.350       .  A
C336        C344   1.387       .  A
C336        C352   1.413       .  A
C337        C353   1.413       .  A
C337        C345   1.387       .  A
C338        C346   1.387       .  A
C338        C355   1.413   1_565  A
C339        C354   1.413   1_565  A
C339        C347   1.387       .  A
C340        C352   1.409       .  A
C340        C348   1.386       .  A
C341        C355   1.411       .  A
C341        C349   1.387       .  A
C342        C350   1.386       .  A
C342        C353   1.409       .  A
C343        C351   1.387       .  A
C343        C354   1.411       .  A
C344        C345   1.373   1_455  A
C344        H356   1.082       .  S
C345        H357   1.082   1_545  S
C346        C347   1.376   1_455  A
C346        H358   1.082       .  S
C347        H359   1.082       .  S
C348        C349   1.372       .  A
C348        H360   1.082       .  S
C349        H361   1.082       .  S
C350        C351   1.372       .  A
C350        H362   1.082       .  S
C351        H363   1.082       .  S
C352        C641   1.484       .  S
C353        C632   1.483       .  S
C354        C605   1.483       .  S
C355        C620   1.483       .  S
C366        N367   1.362   1_545  A
C366        N371   1.357       .  A
C366        C593   1.480       .  S
N367        C368   1.362       .  A
C368        N369   1.358       .  A
C368        C788   1.476       .  S
N369        C370   1.354       .  A
C370        N371   1.354   1_565  A
C370        C617   1.490       .  S
O372        C388   1.276       .  A
O372       Zn378   2.033       .  S
C373        C584   1.490       .  S
C373        O389   1.276       .  A
C373        O386   1.274       .  A
O374        C387   1.275       .  A
O374       Cd381   2.075       .  S
O375        C393   1.273       .  A
O375       Cd384   2.049       .  S
O376        C390   1.275       .  A
O376       Cd380   2.083       .  S
O377        C388   1.275       .  A
O377       Cd380   2.058       .  S
Zn378       O389   2.031       .  S
Zn378       O391   2.016       .  S
Zn378       O383   1.949       .  S
O379        C390   1.273       .  A
O379       Cd384   2.055       .  S
Cd380       O382   2.071       .  S
Cd380       O383   1.999       .  S
Cd381       O385   2.083       .  S
Cd381       O394   2.094       .  S
Cd381       O383   2.014       .  S
O382        C392   1.275       .  A
O383       Cd384   1.992       .  S
Cd384       O386   2.080       .  S
O385        C392   1.277       .  A
C387        C545   1.480       .  S
C387        O391   1.275       .  A
C388        C569   1.482       .  S
C390        C596   1.488       .  S
C392        C557   1.486       .  S
C393        C533   1.486       .  S
C393        O394   1.278       .  A
C395        N396   1.360       .  A
C395        N400   1.365       .  A
C395        C581   1.493       .  S
N396        C397   1.356       .  A
C397        N398   1.354   1_455  A
C397       C1217   1.487       .  S
N398        C399   1.357       .  A
C399        N400   1.364   1_655  A
C399        C716   1.486       .  S
C401        N402   1.364   1_556  A
C401        N406   1.356       .  A
C401        C932   1.482       .  S
N402        C403   1.364       .  A
C403        N404   1.360       .  A
C403        C572   1.479       .  S
N404        C405   1.354       .  A
C405        N406   1.352   1_554  A
C405       C1172   1.482       .  S
C407        N408   1.356       .  A
C407        N412   1.362       .  A
C407        C701   1.472       .  S
N408        C409   1.353       .  A
C409        N410   1.354       .  A
C409       C1361   1.485       .  S
N410        C411   1.357       .  A
C411        N412   1.362       .  A
C411        C560   1.477       .  S
C413        N414   1.357       .  A
C413        N418   1.367       .  A
C413        C848   1.492       .  S
N414        C415   1.350   1_565  A
C415        N416   1.354       .  A
C415        C608   1.488       .  S
N416        C417   1.359       .  A
C417        N418   1.367   1_545  A
C417        C692   1.489       .  S
C419        N420   1.356       .  A
C419        N424   1.364       .  A
C419        C992   1.479       .  S
N420        C421   1.352       .  A
C421        N422   1.352   1_556  A
C421       C1193   1.485       .  S
N422        C423   1.355       .  A
C423        N424   1.365   1_554  A
C423        C680   1.488       .  S
C425        N426   1.356       .  A
C425        N430   1.362       .  A
C425        C668   1.480       .  S
N426        C427   1.353       .  A
C427        N428   1.357       .  A
C427       C1265   1.495       .  S
N428        C429   1.358       .  A
C429        N430   1.363       .  A
C429        C812   1.472       .  S
C431        N432   1.363       .  A
C431        N436   1.356       .  A
C431        C653   1.475       .  S
N432        C433   1.365       .  A
C433        N434   1.359       .  A
C433        C944   1.483       .  S
N434        C435   1.357       .  A
C435        N436   1.354       .  A
C435       C1328   1.485       .  S
C437        N438   1.357       .  A
C437        N442   1.362       .  A
C437        C548   1.477       .  S
N438        C439   1.357       .  A
C439        N440   1.355       .  A
C439       C1253   1.492       .  S
N440        C441   1.358       .  A
C441        N442   1.361       .  A
C441        C776   1.475       .  S
C443        N444   1.358       .  A
C443        N448   1.365       .  A
C443        C857   1.477       .  S
N444        C445   1.354       .  A
C445        N446   1.351   1_655  A
C445       C1244   1.479       .  S
N446        C447   1.356       .  A
C447        N448   1.365   1_455  A
C447        C761   1.491       .  S
C449        N450   1.370       .  A
C449        N454   1.354       .  A
C449       C1061   1.498       .  S
N450        C451   1.369   1_556  A
C451        N452   1.357       .  A
C451        C752   1.488       .  S
N452        C453   1.351       .  A
C453        N454   1.352   1_554  A
C453       C1157   1.487       .  S
C455        N456   1.357       .  A
C455        N460   1.362       .  A
C455        C737   1.472       .  S
N456        C457   1.356       .  A
C457        N458   1.355       .  A
C457       C1376   1.485       .  S
N458        C459   1.358       .  A
C459        N460   1.362       .  A
C459        C836   1.483       .  S
C461        N462   1.359       .  A
C461        N466   1.366       .  A
C461       C1013   1.484       .  S
N462        C463   1.356       .  A
C463        N464   1.354       .  A
C463       C1304   1.483       .  S
N464        C465   1.356       .  A
C465        N466   1.365       .  A
C465        C728   1.484       .  S
C467        N468   1.358       .  A
C467        N472   1.368   1_556  A
C467       C1124   1.486       .  S
N468        C469   1.355   1_556  A
C469        N470   1.354       .  A
C469       C1184   1.488       .  S
N470        C471   1.359       .  A
C471        N472   1.368       .  A
C471        C824   1.490       .  S
C473        N474   1.357       .  A
C473        N478   1.363       .  A
C473        C536   1.484       .  S
N474        C475   1.352       .  A
C475        N476   1.353       .  A
C475       C1313   1.483       .  S
N476        C477   1.360       .  A
C477        N478   1.364       .  A
C477        C920   1.490       .  S
C479        N480   1.363   1_655  A
C479        N484   1.356       .  A
C479       C1004   1.478       .  S
N480        C481   1.364       .  A
C481        N482   1.355       .  A
C481        C905   1.472       .  S
N482        C483   1.355       .  A
C483        N484   1.351   1_455  A
C483       C1208   1.488       .  S
C485        N486   1.358       .  A
C485        N490   1.366       .  A
C485        C896   1.485       .  S
N486        C487   1.353       .  A
C487        N488   1.352   1_545  A
C487        C644   1.487       .  S
N488        C489   1.358       .  A
C489        N490   1.366   1_565  A
C489       C1076   1.490       .  S
C491        N492   1.358       .  A
C491        N496   1.361       .  A
C491        C980   1.475       .  S
N492        C493   1.355       .  A
C493        N494   1.355       .  A
C493       C1352   1.480       .  S
N494        C495   1.358       .  A
C495        N496   1.362       .  A
C495        C884   1.487       .  S
C497        N498   1.358       .  A
C497        N502   1.364       .  A
C497        C869   1.482       .  S
N498        C499   1.355       .  A
C499        N500   1.354       .  A
C499       C1277   1.492       .  S
N500        C501   1.358       .  A
C501        N502   1.364       .  A
C501       C1052   1.487       .  S
C503        N504   1.368   1_565  A
C503        N508   1.364       .  A
C503       C1136   1.500       .  S
N504        C505   1.365       .  A
C505        N506   1.352       .  A
C505        C965   1.482       .  S
N506        C507   1.351       .  A
C507        N508   1.357   1_545  A
C507        C629   1.494       .  S
C509        N510   1.357       .  A
C509        N514   1.367       .  A
C509       C1148   1.496       .  S
N510        C511   1.352       .  A
C511        N512   1.353   1_655  A
C511       C1232   1.481       .  S
N512        C513   1.358       .  A
C513        N514   1.366   1_455  A
C513       C1037   1.485       .  S
C515        N516   1.358       .  A
C515        N520   1.356       .  A
C515       C1025   1.470       .  S
N516        C517   1.359       .  A
C517        N518   1.357       .  A
C517       C1112   1.472       .  S
N518        C519   1.356       .  A
C519        N520   1.355       .  A
C519       C1385   1.487       .  S
C521        N522   1.355       .  A
C521        N526   1.366       .  A
C521       C1097   1.489       .  S
N522        C523   1.353       .  A
C523        N524   1.355       .  A
C523       C1292   1.493       .  S
N524        C525   1.360       .  A
C525        N526   1.366       .  A
C525        C956   1.481       .  S
C527        N528   1.363       .  A
C527        N532   1.354       .  A
C527        C800   1.476       .  S
N528        C529   1.363       .  A
C529        N530   1.359       .  A
C529       C1088   1.482       .  S
N530        C531   1.357       .  A
C531        N532   1.355       .  A
C531       C1340   1.490       .  S
C533        C534   1.408       .  A
C533        C538   1.416       .  A
C534        C535   1.407       .  A
C534        H539   1.084       .  S
C535        C536   1.413       .  A
C535        C542   1.443       .  S
C536        C537   1.403       .  A
C537        C538   1.394       .  A
C537        H540   1.085       .  S
C538        C541   1.446       .  S
C541        N543   1.158       .  T
C542        N544   1.157       .  T
C545        C546   1.405       .  A
C545        C550   1.413       .  A
C546        C547   1.402       .  A
C546        H551   1.085       .  S
C547        C548   1.410       .  A
C547        C554   1.443       .  S
C548        C549   1.404       .  A
C549        C550   1.401       .  A
C549        H552   1.085       .  S
C550        C553   1.445       .  S
C553        N555   1.158       .  T
C554        N556   1.157       .  T
C557        C558   1.409       .  A
C557        C562   1.414       .  A
C558        C559   1.406       .  A
C558        H563   1.084       .  S
C559        C560   1.409       .  A
C559        C566   1.444       .  S
C560        C561   1.402       .  A
C561        C562   1.396       .  A
C561        H564   1.085       .  S
C562        C565   1.444       .  S
C565        N567   1.157       .  T
C566        N568   1.157       .  T
C569        C570   1.403       .  A
C569        C574   1.415       .  A
C570        C571   1.396       .  A
C570        H575   1.085       .  S
C571        C572   1.410       .  A
C571        C578   1.445       .  S
C572        C573   1.405       .  A
C573        C574   1.407       .  A
C573        H576   1.084       .  S
C574        C577   1.444       .  S
C577        N579   1.157       .  T
C578        N580   1.157       .  T
C581        C582   1.407       .  A
C581        C586   1.416       .  A
C582        C583   1.399       .  A
C582        H587   1.085       .  S
C583        C584   1.412       .  A
C583        C590   1.445       .  S
C584        C585   1.408       .  A
C585        C586   1.408       .  A
C585        H588   1.085       .  S
C586        C589   1.444       .  S
C589        N591   1.157       .  T
C590        N592   1.157       .  T
C593        C594   1.402       .  A
C593        C598   1.410       .  A
C594        C595   1.394       .  A
C594        H599   1.085       .  S
C595        C596   1.416       .  A
C595        C602   1.446       .  S
C596        C597   1.410       .  A
C597        C598   1.407       .  A
C597        H600   1.084       .  S
C598        C601   1.443       .  S
C601        N603   1.157       .  T
C602        N604   1.157       .  T
C605        C606   1.400   1_545  A
C605        C610   1.405       .  A
C606        C607   1.401       .  A
C606        H611   1.085       .  S
C607        C608   1.420   1_565  A
C607        C614   1.445       .  S
C608        C609   1.407       .  A
C609        C610   1.396       .  A
C609        H612   1.081       .  S
C610        C613   1.444       .  S
C613        N615   1.157       .  T
C614        N616   1.158       .  T
C617        C618   1.409   1_565  A
C617        C622   1.419       .  A
C618        C619   1.397       .  A
C618        H623   1.084       .  S
C619        C620   1.405       .  A
C619        C626   1.444       .  S
C620        C621   1.400   1_545  A
C621        C622   1.401       .  A
C621        H624   1.085       .  S
C622        C625   1.444       .  S
C625        N627   1.157       .  T
C626        N628   1.157       .  T
C629        C630   1.413       .  A
C629        C634   1.419   1_545  A
C630        C631   1.397       .  A
C630        H635   1.084       .  S
C631        C632   1.404       .  A
C631        C638   1.444       .  S
C632        C633   1.400   1_545  A
C633        C634   1.400       .  A
C633        H636   1.085       .  S
C634        C637   1.443       .  S
C637        N639   1.157       .  T
C638        N640   1.157       .  T
C641        C642   1.400   1_545  A
C641        C646   1.406       .  A
C642        C643   1.399       .  A
C642        H647   1.085       .  S
C643        C644   1.418   1_565  A
C643        C650   1.444       .  S
C644        C645   1.408       .  A
C645        C646   1.399       .  A
C645        H648   1.084       .  S
C646        C649   1.444       .  S
C649        N651   1.157       .  T
C650        N652   1.158       .  T
C653        C654   1.401       .  A
C653        C658   1.408       .  A
C654        C655   1.405       .  A
C654        H659   1.085       .  S
C655        C656   1.419       .  A
C655        C662   1.444       .  S
C656        C657   1.408       .  A
C657        C658   1.401       .  A
C657        H660   1.084       .  S
C658        C661   1.444       .  S
C661        N663   1.157       .  T
C662        N664   1.157       .  T
C665        C666   1.408       .  A
C665        C670   1.417       .  A
C666        C667   1.407       .  A
C666        H671   1.084       .  S
C667        C668   1.412       .  A
C667        C674   1.443       .  S
C668        C669   1.401       .  A
C669        C670   1.396       .  A
C669        H672   1.086       .  S
C670        C673   1.446       .  S
C673        N675   1.157       .  T
C674        N676   1.157       .  T
C677        C678   1.411       .  A
C677        C682   1.416       .  A
C678        C679   1.404       .  A
C678        H683   1.084       .  S
C679        C680   1.411       .  A
C679        C686   1.443       .  S
C680        C681   1.407       .  A
C681        C682   1.396       .  A
C681        H684   1.085       .  S
C682        C685   1.446       .  S
C685        N687   1.158       .  T
C686        N688   1.157       .  T
C689        C690   1.404       .  A
C689        C694   1.420       .  A
C690        C691   1.396       .  A
C690        H695   1.085       .  S
C691        C692   1.415       .  A
C691        C698   1.445       .  S
C692        C693   1.405       .  A
C693        C694   1.409       .  A
C693        H696   1.084       .  S
C694        C697   1.444       .  S
C697        N699   1.157       .  T
C698        N700   1.157       .  T
C701        C702   1.399       .  A
C701        C706   1.409       .  A
C702        C703   1.403       .  A
C702        H707   1.085       .  S
C703        C704   1.420       .  A
C703        C710   1.443       .  S
C704        C705   1.409       .  A
C705        C706   1.397       .  A
C705        H708   1.084       .  S
C706        C709   1.446       .  S
C709        N711   1.157       .  T
C710        N712   1.157       .  T
C713        C714   1.408       .  A
C713        C718   1.418       .  A
C714        C715   1.405       .  A
C714        H719   1.084       .  S
C715        C716   1.413       .  A
C715        C722   1.443       .  S
C716        C717   1.404       .  A
C717        C718   1.397       .  A
C717        H720   1.085       .  S
C718        C721   1.446       .  S
C721        N723   1.158       .  T
C722        N724   1.157       .  T
C725        C726   1.405       .  A
C725        C730   1.418       .  A
C726        C727   1.399       .  A
C726        H731   1.085       .  S
C727        C728   1.413       .  A
C727        C734   1.446       .  S
C728        C729   1.403       .  A
C729        C730   1.407       .  A
C729        H732   1.085       .  S
C730        C733   1.443       .  S
C733        N735   1.157       .  T
C734        N736   1.157       .  T
C737        C738   1.399       .  A
C737        C742   1.406       .  A
C738        C739   1.402       .  A
C738        H743   1.085       .  S
C739        C740   1.421       .  A
C739        C746   1.444       .  S
C740        C741   1.410       .  A
C741        C742   1.401       .  A
C741        H744   1.084       .  S
C742        C745   1.444       .  S
C745        N747   1.157       .  T
C746        N748   1.157       .  T
C749        C750   1.409       .  A
C749        C754   1.410       .  A
C750        C751   1.411       .  A
C750        H755   1.084       .  S
C751        C752   1.412       .  A
C751        C758   1.443       .  S
C752        C753   1.405       .  A
C753        C754   1.399       .  A
C753        H756   1.085       .  S
C754        C757   1.444       .  S
C757        N759   1.157       .  T
C758        N760   1.157       .  T
C761        C762   1.407       .  A
C761        C766   1.414       .  A
C762        C763   1.394       .  A
C762        H767   1.085       .  S
C763        C764   1.416       .  A
C763        C770   1.446       .  S
C764        C765   1.409       .  A
C765        C766   1.406       .  A
C765        H768   1.084       .  S
C766        C769   1.442       .  S
C769        N771   1.157       .  T
C770        N772   1.158       .  T
C773        C774   1.402       .  A
C773        C778   1.415       .  A
C774        C775   1.397       .  A
C774        H779   1.085       .  S
C775        C776   1.410       .  A
C775        C782   1.444       .  S
C776        C777   1.403       .  A
C777        C778   1.405       .  A
C777        H780   1.085       .  S
C778        C781   1.445       .  S
C781        N783   1.158       .  T
C782        N784   1.157       .  T
C785        C786   1.404       .  A
C785        C790   1.416       .  A
C786        C787   1.395       .  A
C786        H791   1.085       .  S
C787        C788   1.411       .  A
C787        C794   1.445       .  S
C788        C789   1.403       .  A
C789        C790   1.405       .  A
C789        H792   1.085       .  S
C790        C793   1.444       .  S
C793        N795   1.157       .  T
C794        N796   1.157       .  T
C797        C798   1.404       .  A
C797        C802   1.413       .  A
C798        C799   1.403       .  A
C798        H803   1.085       .  S
C799        C800   1.410       .  A
C799        C806   1.443       .  S
C800        C801   1.404       .  A
C801        C802   1.400       .  A
C801        H804   1.085       .  S
C802        C805   1.445       .  S
C805        N807   1.158       .  T
C806        N808   1.157       .  T
C809        C810   1.406       .  A
C809        C814   1.418       .  A
C810        C811   1.398       .  A
C810        H815   1.085       .  S
C811        C812   1.407       .  A
C811        C818   1.444       .  S
C812        C813   1.401       .  A
C813        C814   1.404       .  A
C813        H816   1.085       .  S
C814        C817   1.445       .  S
C817        N819   1.158       .  T
C818        N820   1.157       .  T
C821        C822   1.408       .  A
C821        C826   1.415       .  A
C822        C823   1.406       .  A
C822        H827   1.085       .  S
C823        C824   1.412       .  A
C823        C830   1.440       .  S
C824        C825   1.406       .  A
C825        C826   1.400       .  A
C825        H828   1.085       .  S
C826        C829   1.445       .  S
C829        N831   1.158       .  T
C830        N832   1.156       .  T
C833        C834   1.410       .  A
C833        C838   1.416       .  A
C834        C835   1.407       .  A
C834        H839   1.084       .  S
C835        C836   1.412       .  A
C835        C842   1.444       .  S
C836        C837   1.402       .  A
C837        C838   1.397       .  A
C837        H840   1.085       .  S
C838        C841   1.445       .  S
C841        N843   1.157       .  T
C842        N844   1.157       .  T
C845        C846   1.412       .  A
C845        C850   1.417       .  A
C846        C847   1.408       .  A
C846        H851   1.084       .  S
C847        C848   1.412       .  A
C847        C854   1.443       .  S
C848        C849   1.406       .  A
C849        C850   1.396       .  A
C849        H852   1.085       .  S
C850        C853   1.446       .  S
C853        N855   1.158       .  T
C854        N856   1.157       .  T
C857        C858   1.401       .  A
C857        C862   1.410       .  A
C858        C859   1.398       .  A
C858        H863   1.085       .  S
C859        C860   1.415       .  A
C859        C866   1.445       .  S
C860        C861   1.408       .  A
C861        C862   1.406       .  A
C861        H864   1.084       .  S
C862        C865   1.443       .  S
C865        N867   1.157       .  T
C866        N868   1.157       .  T
C869        C870   1.403       .  A
C869        C874   1.413       .  A
C870        C871   1.405       .  A
C870        H875   1.085       .  S
C871        C872   1.418       .  A
C871        C878   1.444       .  S
C872        C873   1.405       .  A
C873        C874   1.398       .  A
C873        H876   1.085       .  S
C874        C877   1.445       .  S
C877        N879   1.157       .  T
C878        N880   1.157       .  T
C881        C882   1.410       .  A
C881        C886   1.418       .  A
C882        C883   1.406       .  A
C882        H887   1.084       .  S
C883        C884   1.413       .  A
C883        C890   1.444       .  S
C884        C885   1.403       .  A
C885        C886   1.398       .  A
C885        H888   1.085       .  S
C886        C889   1.445       .  S
C889        N891   1.157       .  T
C890        N892   1.157       .  T
C893        C894   1.408       .  A
C893        C898   1.417       .  A
C894        C895   1.407       .  A
C894        H899   1.084       .  S
C895        C896   1.412       .  A
C895        C902   1.443       .  S
C896        C897   1.404       .  A
C897        C898   1.397       .  A
C897        H900   1.085       .  S
C898        C901   1.446       .  S
C901        N903   1.158       .  T
C902        N904   1.157       .  T
C905        C906   1.398       .  A
C905        C910   1.410       .  A
C906        C907   1.402       .  A
C906        H911   1.085       .  S
C907        C908   1.418       .  A
C907        C914   1.444       .  S
C908        C909   1.407       .  A
C909        C910   1.403       .  A
C909        H912   1.085       .  S
C910        C913   1.445       .  S
C913        N915   1.157       .  T
C914        N916   1.157       .  T
C917        C918   1.410       .  A
C917        C922   1.417       .  A
C918        C919   1.407       .  A
C918        H923   1.084       .  S
C919        C920   1.414       .  A
C919        C926   1.444       .  S
C920        C921   1.404       .  A
C921        C922   1.396       .  A
C921        H924   1.085       .  S
C922        C925   1.445       .  S
C925        N927   1.157       .  T
C926        N928   1.157       .  T
C929        C930   1.409       .  A
C929        C934   1.414       .  A
C930        C931   1.407       .  A
C930        H935   1.084       .  S
C931        C932   1.412       .  A
C931        C938   1.444       .  S
C932        C933   1.403       .  A
C933        C934   1.397       .  A
C933        H936   1.085       .  S
C934        C937   1.445       .  S
C937        N939   1.157       .  T
C938        N940   1.157       .  T
C941        C942   1.410       .  A
C941        C946   1.419       .  A
C942        C943   1.408       .  A
C942        H947   1.084       .  S
C943        C944   1.411       .  A
C943        C950   1.444       .  S
C944        C945   1.401       .  A
C945        C946   1.400       .  A
C945        H948   1.085       .  S
C946        C949   1.445       .  S
C949        N951   1.157       .  T
C950        N952   1.157       .  T
C953        C954   1.408       .  A
C953        C958   1.421       .  A
C954        C955   1.400       .  A
C954        H959   1.084       .  S
C955        C956   1.410       .  A
C955        C962   1.445       .  S
C956        C957   1.402       .  A
C957        C958   1.408       .  A
C957        H960   1.085       .  S
C958        C961   1.444       .  S
C961        N963   1.157       .  T
C962        N964   1.157       .  T
C965        C966   1.403       .  A
C965        C970   1.416       .  A
C966        C967   1.406       .  A
C966        H971   1.085       .  S
C967        C968   1.414       .  A
C967        C974   1.443       .  S
C968        C969   1.402       .  A
C969        C970   1.400       .  A
C969        H972   1.085       .  S
C970        C973   1.446       .  S
C973        N975   1.157       .  T
C974        N976   1.157       .  T
C977        C978   1.410       .  A
C977        C982   1.420       .  A
C978        C979   1.401       .  A
C978        H983   1.084       .  S
C979        C980   1.408       .  A
C979        C986   1.443       .  S
C980        C981   1.400       .  A
C981        C982   1.399       .  A
C981        H984   1.085       .  S
C982        C985   1.444       .  S
C985        N987   1.157       .  T
C986        N988   1.157       .  T
C989        C990   1.405       .  A
C989        C994   1.418       .  A
C990        C991   1.398       .  A
C990        H995   1.085       .  S
C991        C992   1.412       .  A
C991        C998   1.445       .  S
C992        C993   1.403       .  A
C993        C994   1.406       .  A
C993        H996   1.085       .  S
C994        C997   1.443       .  S
C997        N999   1.157       .  T
C998       N1000   1.157       .  T
C1001      C1002   1.409       .  A
C1001      C1006   1.412       .  A
C1002      C1003   1.405       .  A
C1002      H1007   1.085       .  S
C1003      C1004   1.410       .  A
C1003      C1010   1.443       .  S
C1004      C1005   1.403       .  A
C1005      C1006   1.394       .  A
C1005      H1008   1.085       .  S
C1006      C1009   1.445       .  S
C1009      N1011   1.157       .  T
C1010      N1012   1.157       .  T
C1013      C1014   1.404       .  A
C1013      C1018   1.410       .  A
C1014      C1015   1.402       .  A
C1014      H1019   1.084       .  S
C1015      C1016   1.416       .  A
C1015      C1022   1.445       .  S
C1016      C1017   1.409       .  A
C1017      C1018   1.406       .  A
C1017      H1020   1.084       .  S
C1018      C1021   1.443       .  S
C1021      N1023   1.157       .  T
C1022      N1024   1.157       .  T
C1025      C1026   1.400       .  A
C1025      C1030   1.409       .  A
C1026      C1027   1.399       .  A
C1026      H1031   1.085       .  S
C1027      C1028   1.415       .  A
C1027      C1034   1.445       .  S
C1028      C1029   1.405       .  A
C1029      C1030   1.401       .  A
C1029      H1032   1.085       .  S
C1030      C1033   1.444       .  S
C1033      N1035   1.157       .  T
C1034      N1036   1.157       .  T
C1037      C1038   1.404       .  A
C1037      C1042   1.411       .  A
C1038      C1039   1.398       .  A
C1038      H1043   1.083       .  S
C1039      C1040   1.413       .  A
C1039      C1046   1.444       .  S
C1040      C1041   1.408       .  A
C1041      C1042   1.407       .  A
C1041      H1044   1.084       .  S
C1042      C1045   1.443       .  S
C1045      N1047   1.157       .  T
C1046      N1048   1.157       .  T
C1049      C1050   1.408       .  A
C1049      C1054   1.416       .  A
C1050      C1051   1.407       .  A
C1050      H1055   1.084       .  S
C1051      C1052   1.413       .  A
C1051      C1058   1.443       .  S
C1052      C1053   1.404       .  A
C1053      C1054   1.398       .  A
C1053      H1056   1.085       .  S
C1054      C1057   1.446       .  S
C1057      N1059   1.158       .  T
C1058      N1060   1.157       .  T
C1061      C1062   1.404       .  A
C1061      C1066   1.424       .  A
C1062      C1063   1.407       .  A
C1062      H1067   1.084       .  S
C1063      C1064   1.420       .  A
C1063      C1070   1.442       .  S
C1064      C1065   1.404       .  A
C1065      C1066   1.399       .  A
C1065      H1068   1.085       .  S
C1066      C1069   1.446       .  S
C1069      N1071   1.158       .  T
C1070      N1072   1.157       .  T
C1073      C1074   1.411       .  A
C1073      C1078   1.417       .  A
C1074      C1075   1.410       .  A
C1074      H1079   1.084       .  S
C1075      C1076   1.413       .  A
C1075      C1082   1.443       .  S
C1076      C1077   1.404       .  A
C1077      C1078   1.397       .  A
C1077      H1080   1.085       .  S
C1078      C1081   1.445       .  S
C1081      N1083   1.157       .  T
C1082      N1084   1.157       .  T
C1085      C1086   1.410       .  A
C1085      C1090   1.422       .  A
C1086      C1087   1.407       .  A
C1086      H1091   1.084       .  S
C1087      C1088   1.410       .  A
C1087      C1094   1.443       .  S
C1088      C1089   1.400       .  A
C1089      C1090   1.399       .  A
C1089      H1092   1.085       .  S
C1090      C1093   1.445       .  S
C1093      N1095   1.158       .  T
C1094      N1096   1.157       .  T
C1097      C1098   1.408       .  A
C1097      C1102   1.412       .  A
C1098      C1099   1.398       .  A
C1098      H1103   1.085       .  S
C1099      C1100   1.410       .  A
C1099      C1106   1.446       .  S
C1100      C1101   1.408       .  A
C1101      C1102   1.408       .  A
C1101      H1104   1.084       .  S
C1102      C1105   1.443       .  S
C1105      N1107   1.157       .  T
C1106      N1108   1.157       .  T
C1109      C1110   1.408       .  A
C1109      C1114   1.420       .  A
C1110      C1111   1.402       .  A
C1110      H1115   1.084       .  S
C1111      C1112   1.409       .  A
C1111      C1118   1.444       .  S
C1112      C1113   1.399       .  A
C1113      C1114   1.397       .  A
C1113      H1116   1.085       .  S
C1114      C1117   1.445       .  S
C1117      N1119   1.157       .  T
C1118      N1120   1.157       .  T
C1121      C1122   1.408       .  A
C1121      C1126   1.415       .  A
C1122      C1123   1.408       .  A
C1122      H1127   1.085       .  S
C1123      C1124   1.411       .  A
C1123      C1130   1.441       .  S
C1124      C1125   1.405       .  A
C1125      C1126   1.402       .  A
C1125      H1128   1.085       .  S
C1126      C1129   1.445       .  S
C1129      N1131   1.157       .  T
C1130      N1132   1.157       .  T
C1133      C1134   1.406       .  A
C1133      C1138   1.413       .  A
C1134      C1135   1.408       .  A
C1134      H1139   1.085       .  S
C1135      C1136   1.418       .  A
C1135      C1142   1.442       .  S
C1136      C1137   1.409       .  A
C1137      C1138   1.400       .  A
C1137      H1140   1.083       .  S
C1138      C1141   1.446       .  S
C1141      N1143   1.158       .  T
C1142      N1144   1.157       .  T
C1145      C1146   1.408       .  A
C1145      C1150   1.411       .  A
C1146      C1147   1.406       .  A
C1146      H1151   1.085       .  S
C1147      C1148   1.416       .  A
C1147      C1154   1.443       .  S
C1148      C1149   1.410       .  A
C1149      C1150   1.398       .  A
C1149      H1152   1.085       .  S
C1150      C1153   1.446       .  S
C1153      N1155   1.158       .  T
C1154      N1156   1.157       .  T
C1157      C1158   1.410   1_554  A
C1157      C1162   1.420       .  A
C1158      C1159   1.393       .  A
C1158      H1163   1.083       .  S
C1159      C1160   1.402   1_556  A
C1159      C1166   1.445       .  S
C1160      C1161   1.397       .  A
C1161      C1162   1.397       .  A
C1161      H1164   1.085       .  S
C1162      C1165   1.443       .  S
C1165      N1167   1.157       .  T
C1166      N1168   1.157       .  T
C1169      C1170   1.400   1_554  A
C1169      C1174   1.410       .  A
C1170      C1171   1.398       .  A
C1170      H1175   1.085       .  S
C1171      C1172   1.416   1_556  A
C1171      C1178   1.445       .  S
C1172      C1173   1.406       .  A
C1173      C1174   1.402       .  A
C1173      H1176   1.085       .  S
C1174      C1177   1.444       .  S
C1177      N1179   1.157       .  T
C1178      N1180   1.157       .  T
C1181      C1182   1.401   1_556  A
C1181      C1186   1.409       .  A
C1182      C1183   1.401       .  A
C1182      H1187   1.085       .  S
C1183      C1184   1.418       .  A
C1183      C1190   1.444       .  S
C1184      C1185   1.407   1_554  A
C1185      C1186   1.400       .  A
C1185      H1188   1.084       .  S
C1186      C1189   1.444       .  S
C1189      N1191   1.157       .  T
C1190      N1192   1.157       .  T
C1193      C1194   1.410   1_556  A
C1193      C1198   1.420       .  A
C1194      C1195   1.393       .  A
C1194      H1199   1.084       .  S
C1195      C1196   1.403   1_554  A
C1195      C1202   1.446       .  S
C1196      C1197   1.398       .  A
C1197      C1198   1.397       .  A
C1197      H1200   1.085       .  S
C1198      C1201   1.444       .  S
C1201      N1203   1.157       .  T
C1202      N1204   1.157       .  T
C1205      C1206   1.398   1_455  A
C1205      C1210   1.405       .  A
C1206      C1207   1.396       .  A
C1206      H1211   1.085       .  S
C1207      C1208   1.422   1_655  A
C1207      C1214   1.445       .  S
C1208      C1209   1.409       .  A
C1209      C1210   1.395       .  A
C1209      H1212   1.084       .  S
C1210      C1213   1.444       .  S
C1213      N1215   1.157       .  T
C1214      N1216   1.158       .  T
C1217      C1218   1.408   1_455  A
C1217      C1222   1.416       .  A
C1218      C1219   1.400       .  A
C1218      H1223   1.084       .  S
C1219      C1220   1.407       .  A
C1219      C1226   1.444       .  S
C1220      C1221   1.401   1_655  A
C1221      C1222   1.401       .  A
C1221      H1224   1.085       .  S
C1222      C1225   1.444       .  S
C1225      N1227   1.157       .  T
C1226      N1228   1.157       .  T
C1229      C1230   1.402   1_655  A
C1229      C1234   1.410       .  A
C1230      C1231   1.398       .  A
C1230      H1235   1.085       .  S
C1231      C1232   1.415   1_455  A
C1231      C1238   1.443       .  S
C1232      C1233   1.406       .  A
C1233      C1234   1.397       .  A
C1233      H1236   1.085       .  S
C1234      C1237   1.445       .  S
C1237      N1239   1.157       .  T
C1238      N1240   1.157       .  T
C1241      C1242   1.401       .  A
C1241      C1246   1.409   1_655  A
C1242      C1243   1.398       .  A
C1242      H1247   1.085       .  S
C1243      C1244   1.414       .  A
C1243      C1250   1.444       .  S
C1244      C1245   1.407   1_655  A
C1245      C1246   1.397       .  A
C1245      H1248   1.085       .  S
C1246      C1249   1.445       .  S
C1249      N1251   1.157       .  T
C1250      N1252   1.157       .  T
C1253      C1254   1.410       .  A
C1253      C1258   1.421       .  A
C1254      C1255   1.398       .  A
C1254      H1259   1.084       .  S
C1255      C1256   1.405       .  A
C1255      C1262   1.444       .  S
C1256      C1257   1.399       .  A
C1257      C1258   1.400       .  A
C1257      H1260   1.085       .  S
C1258      C1261   1.444       .  S
C1261      N1263   1.157       .  T
C1262      N1264   1.157       .  T
C1265      C1266   1.411       .  A
C1265      C1270   1.424       .  A
C1266      C1267   1.400       .  A
C1266      H1271   1.084       .  S
C1267      C1268   1.406       .  A
C1267      C1274   1.444       .  S
C1268      C1269   1.398       .  A
C1269      C1270   1.399       .  A
C1269      H1272   1.085       .  S
C1270      C1273   1.444       .  S
C1273      N1275   1.158       .  T
C1274      N1276   1.157       .  T
C1277      C1278   1.410       .  A
C1277      C1282   1.420       .  A
C1278      C1279   1.399       .  A
C1278      H1283   1.084       .  S
C1279      C1280   1.406       .  A
C1279      C1286   1.444       .  S
C1280      C1281   1.399       .  A
C1281      C1282   1.400       .  A
C1281      H1284   1.085       .  S
C1282      C1285   1.444       .  S
C1285      N1287   1.158       .  T
C1286      N1288   1.157       .  T
C1289      C1290   1.400       .  A
C1289      C1294   1.404       .  A
C1290      C1291   1.402       .  A
C1290      H1295   1.085       .  S
C1291      C1292   1.421       .  A
C1291      C1298   1.444       .  S
C1292      C1293   1.411       .  A
C1293      C1294   1.395       .  A
C1293      H1296   1.084       .  S
C1294      C1297   1.444       .  S
C1297      N1299   1.157       .  T
C1298      N1300   1.158       .  T
C1301      C1302   1.401       .  A
C1301      C1306   1.407       .  A
C1302      C1303   1.399       .  A
C1302      H1307   1.085       .  S
C1303      C1304   1.415       .  A
C1303      C1310   1.443       .  S
C1304      C1305   1.408       .  A
C1305      C1306   1.399       .  A
C1305      H1308   1.085       .  S
C1306      C1309   1.444       .  S
C1309      N1311   1.157       .  T
C1310      N1312   1.157       .  T
C1313      C1314   1.407       .  A
C1313      C1318   1.416       .  A
C1314      C1315   1.398       .  A
C1314      H1319   1.084       .  S
C1315      C1316   1.406       .  A
C1315      C1322   1.444       .  S
C1316      C1317   1.401       .  A
C1317      C1318   1.400       .  A
C1317      H1320   1.085       .  S
C1318      C1321   1.444       .  S
C1321      N1323   1.157       .  T
C1322      N1324   1.157       .  T
C1325      C1326   1.399       .  A
C1325      C1330   1.407       .  A
C1326      C1327   1.400       .  A
C1326      H1331   1.085       .  S
C1327      C1328   1.419       .  A
C1327      C1334   1.444       .  S
C1328      C1329   1.407       .  A
C1329      C1330   1.397       .  A
C1329      H1332   1.084       .  S
C1330      C1333   1.444       .  S
C1333      N1335   1.157       .  T
C1334      N1336   1.157       .  T
C1337      C1338   1.400       .  A
C1337      C1342   1.405       .  A
C1338      C1339   1.401       .  A
C1338      H1343   1.085       .  S
C1339      C1340   1.419       .  A
C1339      C1346   1.444       .  S
C1340      C1341   1.409       .  A
C1341      C1342   1.397       .  A
C1341      H1344   1.084       .  S
C1342      C1345   1.444       .  S
C1345      N1347   1.157       .  T
C1346      N1348   1.157       .  T
C1349      C1350   1.400       .  A
C1349      C1354   1.409       .  A
C1350      C1351   1.398       .  A
C1350      H1355   1.085       .  S
C1351      C1352   1.414       .  A
C1351      C1358   1.444       .  S
C1352      C1353   1.406       .  A
C1353      C1354   1.400       .  A
C1353      H1356   1.085       .  S
C1354      C1357   1.444       .  S
C1357      N1359   1.157       .  T
C1358      N1360   1.157       .  T
C1361      C1362   1.409       .  A
C1361      C1366   1.418       .  A
C1362      C1363   1.398       .  A
C1362      H1367   1.084       .  S
C1363      C1364   1.406       .  A
C1363      C1370   1.444       .  S
C1364      C1365   1.399       .  A
C1365      C1366   1.397       .  A
C1365      H1368   1.085       .  S
C1366      C1369   1.444       .  S
C1369      N1371   1.157       .  T
C1370      N1372   1.157       .  T
C1373      C1374   1.402       .  A
C1373      C1378   1.409       .  A
C1374      C1375   1.402       .  A
C1374      H1379   1.085       .  S
C1375      C1376   1.417       .  A
C1375      C1382   1.444       .  S
C1376      C1377   1.406       .  A
C1377      C1378   1.398       .  A
C1377      H1380   1.085       .  S
C1378      C1381   1.445       .  S
C1381      N1383   1.157       .  T
C1382      N1384   1.157       .  T
C1385      C1386   1.409       .  A
C1385      C1390   1.419       .  A
C1386      C1387   1.398       .  A
C1386      H1391   1.084       .  S
C1387      C1388   1.406       .  A
C1387      C1394   1.444       .  S
C1388      C1389   1.398       .  A
C1389      C1390   1.398       .  A
C1389      H1392   1.085       .  S
C1390      C1393   1.444       .  S
C1393      N1395   1.157       .  T
C1394      N1396   1.157       .  T
