geometry optimzed in LAMMPS
_audit_creation_date              2020-11-30 
_audit_creation_method            'lammps2cif' 
_symmetry_space_group_name_H-M    'P1' 
_symmetry_Int_Tables_number       1 
_symmetry_cell_setting            triclinic 
loop_ 
_symmetry_equiv_pos_as_xyz 
  x,y,z 
_cell_length_a                    49.76920946 
_cell_length_b                    49.76966668056014 
_cell_length_c                    99.53590039252556 
_cell_angle_alpha                 90.01088794422621 
_cell_angle_beta                  90.0057704015676 
_cell_angle_gamma                 90.01591729339557 
loop_ 
_atom_site_label 
_atom_site_type_symbol 
_atom_site_fract_x 
_atom_site_fract_y 
_atom_site_fract_z 
_atom_site_charge 
O1          O  0.76364871  0.71969253  0.76493031    -0.71400
O2          O  0.76753704  0.77711190  0.73666487    -0.72400
O3          O  0.76624331  0.77702710  0.76509411    -0.61000
O4          O  0.76494868  0.72030391  0.73635668    -0.69500
O5          O  0.72055548  0.72235907  0.73594543    -0.69000
O6          O  0.72186277  0.77900153  0.76458740    -0.60300
O7          O  0.72307709  0.77894298  0.73619068    -0.72800
O8          O  0.71923025  0.72176085  0.76438863    -0.71500
Cu9        Cu  0.76715131  0.74843981  0.75082058     1.04600
Cu10       Cu  0.71966797  0.75056824  0.75030446     1.04300
C11         C  0.74077439  0.71135112  0.76903119     0.94800
C12         C  0.74586304  0.78696177  0.73186590     0.93900
C13         C  0.74427150  0.78744844  0.76922630     0.86000
C14         C  0.74250673  0.71256899  0.73144430     0.92300
O15         O  0.23486089  0.77874841  0.76390020    -0.71400
O16         O  0.23214797  0.72144623  0.73526581    -0.72400
O17         O  0.23622122  0.72132422  0.76364436    -0.61000
O18         O  0.23071089  0.77839076  0.73530093    -0.69500
O19         O  0.27517515  0.78070728  0.73451452    -0.69000
O20         O  0.28050468  0.72112132  0.76154813    -0.60300
O21         O  0.27643299  0.72395528  0.73302739    -0.72800
O22         O  0.27940435  0.77808154  0.76309094    -0.71500
Cu23       Cu  0.23193258  0.74999202  0.74961202     1.04600
Cu24       Cu  0.27941806  0.75105332  0.74800876     1.04300
C25         C  0.25761965  0.78715135  0.76815178     0.94800
C26         C  0.25384657  0.71394538  0.72950723     0.93900
C27         C  0.25913429  0.71170175  0.76688893     0.86000
C28         C  0.25215092  0.78843800  0.73034306     0.92300
O29         O  0.97072874  0.51338630  0.48630086    -0.71400
O30         O  0.03081126  0.51132136  0.51280198    -0.72400
O31         O  0.02805820  0.51108198  0.48458575    -0.61000
O32         O  0.97464284  0.51332621  0.51476199    -0.69500
O33         O  0.97301003  0.46874700  0.51473708    -0.69000
O34         O  0.02573942  0.46658915  0.48405480    -0.60300
O35         O  0.03021666  0.46667875  0.51237952    -0.72800
O36         O  0.96836958  0.46895085  0.48631707    -0.71500
Cu37       Cu  0.00104193  0.51379324  0.49954688     1.04600
Cu38       Cu  0.99921277  0.46614894  0.49934498     1.04300
C39         C  0.95968186  0.49169575  0.48222033     0.94800
C40         C  0.04004470  0.48876169  0.51673175     0.93900
C41         C  0.03606212  0.48856065  0.47986791     0.86000
C42         C  0.96571786  0.49134048  0.51964703     0.92300
N43         N  0.72021669  0.45473010  0.61934695    -0.25800
N44         N  0.70755031  0.46638781  0.62943941    -0.33600
C45         C  0.68593178  0.45165214  0.63272880     0.02600
C46         C  0.68462882  0.42961934  0.62422786     0.08600
C47         C  0.70687527  0.43221568  0.61590166    -0.04500
H48         H  0.67218237  0.45676837  0.64074142     0.09200
H49         H  0.71253759  0.41923867  0.60765906     0.10400
Cu50       Cu  0.71925070  0.50260060  0.63779557     0.44200
Cu51       Cu  0.75430271  0.47115421  0.61053561     0.42000
Cu52       Cu  0.77569473  0.53712113  0.62246200     0.43900
N53         N  0.73402960  0.53909796  0.64445650    -0.33200
N54         N  0.75454673  0.55177952  0.63890528    -0.27400
C55         C  0.75963304  0.57423783  0.64598146    -0.03500
C56         C  0.74143454  0.57580227  0.65651384     0.08700
C57         C  0.72547111  0.55314900  0.65515706     0.02500
H58         H  0.77602486  0.58786686  0.64386390     0.10100
H59         H  0.70886465  0.54712941  0.66148435     0.09200
N60         N  0.79484433  0.51611996  0.60716104    -0.34600
N61         N  0.78724197  0.49200275  0.60306623    -0.26800
C62         C  0.80432133  0.48340527  0.59354523    -0.02000
C63         C  0.82371250  0.50295210  0.59149642     0.06600
C64         C  0.81694660  0.52350508  0.60027790     0.04700
H65         H  0.80257771  0.46429911  0.58843129     0.09800
H66         H  0.82769819  0.54214374  0.60184485     0.08600
N67         N  0.28806765  0.45870888  0.61718945    -0.25800
N68         N  0.29672543  0.46850167  0.62873322    -0.33600
C69         C  0.31783078  0.45382666  0.63291365     0.02600
C70         C  0.32250633  0.43372193  0.62355306     0.08600
C71         C  0.30322233  0.43750261  0.61372342    -0.04500
H72         H  0.32864168  0.45728698  0.64218467     0.09200
H73         H  0.30052908  0.42590717  0.60462606     0.10400
Cu74       Cu  0.27879000  0.50120933  0.63804431     0.44200
Cu75       Cu  0.25592619  0.47452236  0.60683568     0.42000
Cu76       Cu  0.22278714  0.53362619  0.62073723     0.43900
N77         N  0.25887070  0.53494630  0.64519082    -0.33200
N78         N  0.23876973  0.54707757  0.63896406    -0.27400
C79         C  0.23151230  0.56884536  0.64617029    -0.03500
C80         C  0.24792753  0.57057344  0.65743528     0.08700
C81         C  0.26488042  0.54858678  0.65644632     0.02500
H82         H  0.21599430  0.58284375  0.64318488     0.10100
H83         H  0.28064450  0.54287700  0.66336017     0.09200
N84         N  0.21043241  0.51386776  0.60326437    -0.34600
N85         N  0.22248134  0.49221778  0.59846279    -0.26800
C86         C  0.20913323  0.48339973  0.58760320    -0.02000
C87         C  0.18760128  0.50029571  0.58534113     0.06600
C88         C  0.18908128  0.51948052  0.59543934     0.04700
H89         H  0.21480188  0.46593458  0.58178232     0.09800
H90         H  0.17521548  0.53584313  0.59721060     0.08600
O91         O  0.02507491  0.98025434  0.48722244    -0.71400
O92         O  0.96913465  0.98106919  0.51622223    -0.72400
O93         O  0.96794562  0.97987220  0.48758212    -0.61000
O94         O  0.02574806  0.98184212  0.51587613    -0.69500
O95         O  0.02449219  0.02626029  0.51551522    -0.69000
O96         O  0.96890927  0.02440555  0.48645184    -0.60300
O97         O  0.96753561  0.02554483  0.51517633    -0.72800
O98         O  0.02571627  0.02466909  0.48683979    -0.71500
Cu99       Cu  0.99698385  0.97922861  0.50172344     1.04600
Cu100      Cu  0.99663451  0.02677330  0.50097977     1.04300
C101        C  0.03438773  0.00215525  0.48239471     0.94800
C102        C  0.95962649  0.00339327  0.52038073     0.93900
C103        C  0.95973102  0.00187893  0.48238109     0.86000
C104        C  0.03385578  0.00446947  0.52041661     0.92300
N105        N  0.23643697  0.95837343  0.64212023    -0.25800
N106        N  0.26158325  0.96393307  0.64537883    -0.33600
C107        C  0.26981293  0.94622219  0.65472996     0.02600
C108        C  0.24871624  0.92889243  0.65751559     0.08600
C109        C  0.22791892  0.93725656  0.64934063    -0.04500
H110        H  0.28945064  0.94639100  0.65939732     0.09200
H111        H  0.20808713  0.92847806  0.64855424     0.10400
Cu112      Cu  0.28270209  0.99629500  0.63741034     0.44200
Cu113      Cu  0.21464604  0.97879012  0.62779131     0.42000
Cu114      Cu  0.24580795  0.03554287  0.61240805     0.43900
N115        N  0.29661144  0.03199320  0.62904490    -0.33200
N116        N  0.28312055  0.04614104  0.62004575    -0.27400
C117        C  0.29677984  0.06878526  0.61731872    -0.03500
C118        C  0.31997719  0.06912919  0.62501006     0.08700
C119        C  0.31921586  0.04536339  0.63227995     0.02500
H120        H  0.29007143  0.08398447  0.61031616     0.10100
H121        H  0.33346571  0.03873165  0.63978682     0.09200
N122        N  0.20862573  0.02083721  0.60652656    -0.34600
N123        N  0.19738496  0.99961469  0.61212570    -0.26800
C124        C  0.17469288  0.99351974  0.60549377    -0.02000
C125        C  0.17120563  0.01192158  0.59516443     0.06600
C126        C  0.19316560  0.02908999  0.59625966     0.04700
H127        H  0.16249704  0.97609193  0.60769238     0.09800
H128        H  0.19800809  0.04612672  0.58998389     0.08600
N129        N  0.75551309  0.95320205  0.64181332    -0.25800
N130        N  0.74058712  0.96787219  0.64999307    -0.33600
C131        C  0.73602507  0.95400546  0.66132787     0.02600
C132        C  0.74853362  0.92934910  0.66019991     0.08600
C133        C  0.76061344  0.92941714  0.64768892    -0.04500
H134        H  0.72440888  0.96134850  0.66975072     0.09200
H135        H  0.77299062  0.91376496  0.64337714     0.10400
Cu136      Cu  0.72682991  0.00592305  0.64556098     0.44200
Cu137      Cu  0.77062068  0.96726509  0.62374404     0.42000
Cu138      Cu  0.75543986  0.03675224  0.61619092     0.43900
N139        N  0.71358903  0.04202021  0.63786041    -0.33200
N140        N  0.72412942  0.05341541  0.62710097    -0.27400
C141        C  0.70987732  0.07551323  0.62406629    -0.03500
C142        C  0.68926645  0.07811971  0.63333906     0.08700
C143        C  0.69233583  0.05649685  0.64196134     0.02500
H144        H  0.71348338  0.08794867  0.61533877     0.10100
H145        H  0.67981050  0.05127654  0.65044851     0.09200
N146        N  0.78365163  0.01420967  0.60580311    -0.34600
N147        N  0.78850989  0.98857024  0.60826132    -0.26800
C148        C  0.80799130  0.97995252  0.59995644    -0.02000
C149        C  0.81594565  0.00122618  0.59191429     0.06600
C150        C  0.79999259  0.02261174  0.59590259     0.04700
H151        H  0.81651748  0.95996336  0.60018016     0.09800
H152        H  0.80026133  0.04286229  0.59195669     0.08600
O153        O  0.53127528  0.51628098  0.01468966    -0.71400
O154        O  0.47888061  0.51661637  0.98408430    -0.72400
O155        O  0.47474845  0.51659244  0.01266773    -0.61000
O156        O  0.53589325  0.51624640  0.98638944    -0.69500
O157        O  0.53537690  0.47174282  0.98625581    -0.69000
O158        O  0.47463874  0.47217315  0.01307773    -0.60300
O159        O  0.47818381  0.47219868  0.98432080    -0.72800
O160        O  0.53166709  0.47181787  0.01482018    -0.71500
Cu161      Cu  0.50515837  0.51791462  0.99943555     1.04600
Cu162      Cu  0.50490416  0.47040159  0.99959155     1.04300
C163        C  0.53986082  0.49420584  0.01962367     0.94800
C164        C  0.47013442  0.49445436  0.97929237     0.93900
C165        C  0.46537394  0.49458252  0.01733322     0.86000
C166        C  0.54548879  0.49394716  0.98221703     0.92300
N167        N  0.79352875  0.45805613  0.87949275    -0.25800
N168        N  0.80028523  0.46618869  0.86728899    -0.33600
C169        C  0.82157632  0.45173587  0.86307260     0.02600
C170        C  0.82870759  0.43390107  0.87315857     0.08600
C171        C  0.81051057  0.43856228  0.88340019    -0.04500
H172        H  0.83116704  0.45407181  0.85338595     0.09200
H173        H  0.80912622  0.42790852  0.89285153     0.10400
Cu174      Cu  0.78015387  0.49651182  0.85687429     0.44200
Cu175      Cu  0.76041193  0.47193595  0.89016409     0.42000
Cu176      Cu  0.72029048  0.52138880  0.87324349     0.43900
N177        N  0.75635047  0.52736295  0.84913545    -0.33200
N178        N  0.73435155  0.53612503  0.85513822    -0.27400
C179        C  0.72389871  0.55649395  0.84798199    -0.03500
C180        C  0.74009809  0.56101944  0.83689197     0.08700
C181        C  0.76048640  0.54206557  0.83797150     0.02500
H182        H  0.70587107  0.56727151  0.85076291     0.10100
H183        H  0.77762187  0.53969545  0.83139268     0.09200
N184        N  0.71046474  0.50562428  0.89182657    -0.34600
N185        N  0.72507122  0.48744991  0.89815157    -0.26800
C186        C  0.71303498  0.48134625  0.90987956    -0.02000
C187        C  0.68968577  0.49649114  0.91100199     0.06600
C188        C  0.68889277  0.51168478  0.89933549     0.04700
H189        H  0.72051366  0.46656110  0.91690782     0.09800
H190        H  0.67394305  0.52639740  0.89650918     0.08600
N191        N  0.22494687  0.44932784  0.87587095    -0.25800
N192        N  0.21359952  0.46136374  0.86546659    -0.33600
C193        C  0.19200752  0.44702738  0.86158914     0.02600
C194        C  0.18962488  0.42478994  0.86989948     0.08600
C195        C  0.21089811  0.42701120  0.87883156    -0.04500
H196        H  0.17929320  0.45224126  0.85316999     0.09200
H197        H  0.21561652  0.41365504  0.88707205     0.10400
Cu198      Cu  0.22827228  0.49625155  0.85659133     0.44200
Cu199      Cu  0.25895943  0.46349305  0.88582423     0.42000
Cu200      Cu  0.28854807  0.52304147  0.87152502     0.43900
N201        N  0.24897829  0.52906941  0.84882304    -0.33200
N202        N  0.27116681  0.53869465  0.85430213    -0.27400
C203        C  0.28004330  0.55948899  0.84691296    -0.03500
C204        C  0.26263530  0.56325161  0.83620810     0.08700
C205        C  0.24316111  0.54352252  0.83776983     0.02500
H206        H  0.29808808  0.57077848  0.84911911     0.10100
H207        H  0.22578802  0.54011763  0.83146107     0.09200
N208        N  0.30330731  0.50426775  0.88857897    -0.34600
N209        N  0.29265968  0.48239860  0.89390031    -0.26800
C210        C  0.30714369  0.47536096  0.90478445    -0.02000
C211        C  0.32799623  0.49367307  0.90636403     0.06600
C212        C  0.32476456  0.51170574  0.89588216     0.04700
H213        H  0.30303915  0.45791395  0.91093213     0.09800
H214        H  0.33691814  0.52921726  0.89375634     0.08600
O215        O  0.72384041  0.27937731  0.26515612    -0.71400
O216        O  0.72309295  0.22136027  0.23724490    -0.72400
O217        O  0.72457506  0.22249178  0.26575100    -0.61000
O218        O  0.72271998  0.27820151  0.23659066    -0.69500
O219        O  0.76729780  0.27907193  0.23670436    -0.69000
O220        O  0.76901983  0.22271038  0.26527634    -0.60300
O221        O  0.76756324  0.22198594  0.23677031    -0.72800
O222        O  0.76829637  0.27962717  0.26516704    -0.71500
Cu223      Cu  0.72201566  0.25035197  0.25120469     1.04600
Cu224      Cu  0.76958740  0.25086001  0.25094329     1.04300
C225        C  0.74600694  0.28860151  0.26971133     0.94800
C226        C  0.74523069  0.21248315  0.23252231     0.93900
C227        C  0.74706350  0.21373271  0.27015398     0.86000
C228        C  0.74489616  0.28752403  0.23210469     0.92300
O229        O  0.47407003  0.02527006  0.98557372    -0.71400
O230        O  0.53039790  0.02281132  0.01437426    -0.72400
O231        O  0.53096216  0.02282925  0.98579859    -0.61000
O232        O  0.47327257  0.02512426  0.01398162    -0.69500
O233        O  0.47193553  0.98070019  0.01414104    -0.69000
O234        O  0.52874376  0.97840285  0.98544916    -0.60300
O235        O  0.52903417  0.97840311  0.01410787    -0.72800
O236        O  0.47167220  0.98076123  0.98585423    -0.71500
Cu237      Cu  0.50230701  0.02553953  0.99993600     1.04600
Cu238      Cu  0.50036405  0.97802074  0.99988714     1.04300
C239        C  0.46359489  0.00340551  0.98136621     0.94800
C240        C  0.53867292  0.00022766  0.01886806     0.93900
C241        C  0.53878913  0.00031860  0.98101346     0.86000
C242        C  0.46316838  0.00325547  0.01843837     0.92300
N243        N  0.21239927  0.03541189  0.88120831    -0.25800
N244        N  0.20670702  0.02875509  0.86866926    -0.33600
C245        C  0.18590054  0.04375498  0.86440853     0.02600
C246        C  0.17814932  0.06064028  0.87478673     0.08600
C247        C  0.19541136  0.05470950  0.88526433    -0.04500
H248        H  0.17723278  0.04253749  0.85445716     0.09200
H249        H  0.19639722  0.06452185  0.89495369     0.10400
Cu250      Cu  0.22806711  0.00019552  0.85786787     0.44200
Cu251      Cu  0.24458796  0.02041092  0.89193418     0.42000
Cu252      Cu  0.28916449  0.97684668  0.87316972     0.43900
N253        N  0.25118121  0.96915600  0.85010963    -0.33200
N254        N  0.27369771  0.96054366  0.85566536    -0.27400
C255        C  0.28242799  0.93875537  0.84893396    -0.03500
C256        C  0.26436985  0.93323805  0.83869259     0.08700
C257        C  0.24495985  0.95310550  0.83971949     0.02500
H258        H  0.29979193  0.92697173  0.85176955     0.10100
H259        H  0.22714977  0.95536644  0.83359090     0.09200
N260        N  0.29788334  0.99234434  0.89196559    -0.34600
N261        N  0.28132401  0.00744857  0.89907209    -0.26800
C262        C  0.29295891  0.01348748  0.91088944    -0.02000
C263        C  0.31813667  0.00159355  0.91123216     0.06600
C264        C  0.32050061  0.98844698  0.89901947     0.04700
H265        H  0.28362239  0.02552958  0.91863904     0.09800
H266        H  0.33756428  0.97717229  0.89535216     0.08600
N267        N  0.78306663  0.04703158  0.88038204    -0.25800
N268        N  0.79546357  0.03592529  0.87003598    -0.33600
C269        C  0.81842581  0.04942718  0.86771251     0.02600
C270        C  0.82058706  0.07005431  0.87704772     0.08600
C271        C  0.79777621  0.06774547  0.88493115    -0.04500
H272        H  0.83206544  0.04500712  0.85954747     0.09200
H273        H  0.79212860  0.08015036  0.89339217     0.10400
Cu274      Cu  0.78011710  0.00342348  0.85933843     0.44200
Cu275      Cu  0.74635377  0.03449640  0.88780192     0.42000
Cu276      Cu  0.71487732  0.97953189  0.87086148     0.43900
N277        N  0.75952406  0.97136481  0.85070712    -0.33200
N278        N  0.73586037  0.96285651  0.85499384    -0.27400
C279        C  0.72806128  0.94178133  0.84753098    -0.03500
C280        C  0.74768019  0.93664190  0.83802440     0.08700
C281        C  0.76733674  0.95587949  0.84032528     0.02500
H282        H  0.70925900  0.93120440  0.84887296     0.10100
H283        H  0.78616934  0.95819235  0.83502125     0.09200
N284        N  0.69858571  0.99767794  0.88766859    -0.34600
N285        N  0.71039891  0.01779739  0.89399514    -0.26800
C286        C  0.69629653  0.02372456  0.90511223    -0.02000
C287        C  0.67451266  0.00647770  0.90581929     0.06600
C288        C  0.67652283  0.99032738  0.89454297     0.04700
H289        H  0.70187563  0.03905394  0.91230157     0.09800
H290        H  0.66370703  0.97358063  0.89188787     0.08600
O291        O  0.26782384  0.27996082  0.23526255    -0.71400
O292        O  0.26467289  0.22254456  0.26369491    -0.72400
O293        O  0.26625760  0.22318461  0.23525422    -0.61000
O294        O  0.26658731  0.27940476  0.26386922    -0.69500
O295        O  0.22207659  0.28117976  0.26342591    -0.69000
O296        O  0.22173433  0.22498393  0.23444778    -0.60300
O297        O  0.22027516  0.22382064  0.26314856    -0.72800
O298        O  0.22341999  0.28164060  0.23483658    -0.71500
Cu299      Cu  0.26784311  0.25126114  0.24955786     1.04600
Cu300      Cu  0.22030314  0.25295199  0.24897605     1.04300
C301        C  0.24612861  0.28967630  0.23037945     0.94800
C302        C  0.24199807  0.21387830  0.26790286     0.93900
C303        C  0.24400717  0.21546610  0.23018580     0.86000
C304        C  0.24452301  0.28913898  0.26823608     0.92300
N305        N  0.21075574  0.96156178  0.11721912    -0.25800
N306        N  0.19816650  0.97450308  0.12697249    -0.33600
C307        C  0.17549822  0.96121213  0.13011662     0.02600
C308        C  0.17383021  0.93864942  0.12207155     0.08600
C309        C  0.19656051  0.93941078  0.11404706    -0.04500
H310        H  0.16163194  0.96715377  0.13794576     0.09200
H311        H  0.20227991  0.92500481  0.10642245     0.10400
Cu312      Cu  0.21279996  0.00892940  0.13608817     0.44200
Cu313      Cu  0.24637929  0.97511615  0.10854107     0.42000
Cu314      Cu  0.27428563  0.03642181  0.12261087     0.43900
N315        N  0.23153619  0.04275700  0.14377556    -0.33200
N316        N  0.25393175  0.05292749  0.13877433    -0.27400
C317        C  0.26092479  0.07468486  0.14596876    -0.03500
C318        C  0.24208746  0.07836072  0.15603971     0.08700
C319        C  0.22374838  0.05769199  0.15433314     0.02500
H320        H  0.27881693  0.08651592  0.14418977     0.10100
H321        H  0.20595516  0.05380119  0.16026794     0.09200
N322        N  0.29062429  0.01654403  0.10624790    -0.34600
N323        N  0.28059242  0.99418351  0.10112470    -0.26800
C324        C  0.29560590  0.98683354  0.09050249    -0.02000
C325        C  0.31610062  0.00547648  0.08879954     0.06600
C326        C  0.31220585  0.02400111  0.09902661     0.04700
H327        H  0.29189607  0.96904137  0.08454252     0.09800
H328        H  0.32376227  0.04201039  0.10093961     0.08600
N329        N  0.75657573  0.03133041  0.14976862    -0.25800
N330        N  0.73788897  0.04419731  0.14287022    -0.33600
C331        C  0.73171213  0.06714599  0.14931588     0.02600
C332        C  0.74722528  0.06879249  0.16085909     0.08600
C333        C  0.76278577  0.04571470  0.16076136    -0.04500
H334        H  0.71653680  0.08121589  0.14599559     0.09200
H335        H  0.77772519  0.03980523  0.16808070     0.10400
Cu336      Cu  0.72121342  0.02952703  0.12521470     0.44200
Cu337      Cu  0.77310177  0.99490952  0.14400083     0.42000
Cu338      Cu  0.74953525  0.96759744  0.11242821     0.43900
N339        N  0.70694614  0.00976676  0.10828722    -0.33200
N340        N  0.71717240  0.98712047  0.10360706    -0.27400
C341        C  0.70271728  0.97912287  0.09289784    -0.03500
C342        C  0.68228252  0.99758139  0.09073663     0.08700
C343        C  0.68576321  0.01677757  0.10068845     0.02500
H344        H  0.70637892  0.96076094  0.08737768     0.10100
H345        H  0.67379652  0.03461129  0.10234355     0.09200
N346        N  0.78106044  0.95138107  0.12341549    -0.34600
N347        N  0.78916599  0.96083856  0.13515033    -0.26800
C348        C  0.81017506  0.94618865  0.13947416    -0.02000
C349        C  0.81575379  0.92675304  0.12992428     0.06600
C350        C  0.79685160  0.93063899  0.11990320     0.04700
H351        H  0.82128437  0.95016505  0.14860836     0.09800
H352        H  0.79484310  0.91937211  0.11065764     0.08600
N353        N  0.76140463  0.46586235  0.14853637    -0.25800
N354        N  0.73717062  0.45871248  0.14443236    -0.33600
C355        C  0.72879855  0.43760723  0.15172968     0.02600
C356        C  0.74876298  0.43103907  0.16083043     0.08600
C357        C  0.76916933  0.44936497  0.15850465    -0.04500
H358        H  0.70976804  0.42747307  0.15031322     0.09200
H359        H  0.78811126  0.45088905  0.16378940     0.10400
Cu360      Cu  0.71708718  0.47678207  0.12860953     0.44200
Cu361      Cu  0.78263588  0.49781169  0.14046705     0.42000
Cu362      Cu  0.75386412  0.52755031  0.11046905     0.43900
N363        N  0.70340130  0.49428663  0.11101689    -0.33200
N364        N  0.71723806  0.51226770  0.10412370    -0.27400
C365        C  0.70364771  0.51843412  0.09285655    -0.03500
C366        C  0.68002796  0.50367026  0.09266284     0.08700
C367        C  0.68059387  0.48861800  0.10436559     0.02500
H368        H  0.71045488  0.53272874  0.08541146     0.10100
H369        H  0.66595249  0.47392016  0.10761454     0.09200
N370        N  0.78826802  0.54173874  0.11983854    -0.34600
N371        N  0.79873635  0.53095216  0.13078637    -0.26800
C372        C  0.82007530  0.54562217  0.13464136    -0.02000
C373        C  0.82315054  0.56676964  0.12572715     0.06600
C374        C  0.80262518  0.56359438  0.11646083     0.04700
H375        H  0.83188541  0.54166500  0.14355048     0.09800
H376        H  0.79825665  0.57631369  0.10792398     0.08600
N377        N  0.22047375  0.54910887  0.11957394    -0.25800
N378        N  0.20873591  0.53656568  0.12971409    -0.33600
C379        C  0.18772947  0.55118720  0.13397866     0.02600
C380        C  0.18618631  0.57420234  0.12625327     0.08600
C381        C  0.20731400  0.57228492  0.11723227    -0.04500
H382        H  0.17473989  0.54558681  0.14223396     0.09200
H383        H  0.21240753  0.58639609  0.10936627     0.10400
Cu384      Cu  0.22188513  0.50071649  0.13788578     0.44200
Cu385      Cu  0.25341948  0.53367897  0.10921983     0.42000
Cu386      Cu  0.28048481  0.47169768  0.12308115     0.43900
N387        N  0.24028588  0.46662091  0.14536709    -0.33200
N388        N  0.26196373  0.45591941  0.13991220    -0.27400
C389        C  0.26934546  0.43430673  0.14711504    -0.03500
C390        C  0.25145156  0.43127238  0.15767136     0.08700
C391        C  0.23328874  0.45217652  0.15622066     0.02500
H392        H  0.28674845  0.42204272  0.14493346     0.10100
H393        H  0.21605708  0.45647131  0.16248586     0.09200
N394        N  0.29597956  0.49083486  0.10635228    -0.34600
N395        N  0.28610164  0.51315659  0.10110695    -0.26800
C396        C  0.30096523  0.51994525  0.09032074    -0.02000
C397        C  0.32128445  0.50110896  0.08881404     0.06600
C398        C  0.31740677  0.48297572  0.09915609     0.04700
H399        H  0.29758610  0.53761808  0.08422215     0.09800
H400        H  0.32916512  0.46518831  0.10126802     0.08600
N401        N  0.19650654  0.00388556  0.38935891    -0.25800
N402        N  0.20915896  0.98398698  0.39545608    -0.33600
C403        C  0.19573362  0.97758574  0.40676388     0.02600
C404        C  0.17350628  0.99434882  0.40794329     0.08600
C405        C  0.17483012  0.01075172  0.39666442    -0.04500
H406        H  0.20177347  0.96175669  0.41355959     0.09200
H407        H  0.16148118  0.02708301  0.39407715     0.10400
Cu408      Cu  0.24479889  0.96736354  0.38831946     0.44200
Cu409      Cu  0.20971296  0.02162836  0.37157629     0.42000
Cu410      Cu  0.27352744  0.99880473  0.35854466     0.43900
N411        N  0.28052487  0.95515697  0.37931643    -0.33200
N412        N  0.29106990  0.96669141  0.36857028    -0.27400
C413        C  0.31369400  0.95356450  0.36514665    -0.03500
C414        C  0.31757919  0.93262297  0.37411326     0.08700
C415        C  0.29615420  0.93437699  0.38297992     0.02500
H416        H  0.32585153  0.95836415  0.35646029     0.10100
H417        H  0.29206842  0.92142871  0.39146716     0.09200
N418        N  0.25159805  0.02996085  0.35002445    -0.34600
N419        N  0.22810604  0.03813564  0.35466933    -0.26800
C420        C  0.21950952  0.05891550  0.34715263    -0.02000
C421        C  0.23853565  0.06423857  0.33728858     0.06600
C422        C  0.25856958  0.04533154  0.33946540     0.04700
H423        H  0.20076786  0.06939275  0.34881960     0.09800
H424        H  0.27731291  0.04334552  0.33405585     0.08600
N425        N  0.72022692  0.95011907  0.37890484    -0.25800
N426        N  0.70930136  0.96010701  0.36787497    -0.33600
C427        C  0.68756928  0.94539114  0.36466126     0.02600
C428        C  0.68460572  0.92517555  0.37413215     0.08600
C429        C  0.70580239  0.92876979  0.38296332    -0.04500
H430        H  0.67469094  0.94940810  0.35613900     0.09200
H431        H  0.70982277  0.91746963  0.39202760     0.10400
Cu432      Cu  0.72301154  0.99454306  0.35825401     0.44200
Cu433      Cu  0.75274766  0.96712427  0.38872566     0.42000
Cu434      Cu  0.77619627  0.03017099  0.37575172     0.43900
N435        N  0.73914913  0.03079168  0.35174128    -0.33200
N436        N  0.75827917  0.04375732  0.35828979    -0.27400
C437        C  0.76402816  0.06664135  0.35175904    -0.03500
C438        C  0.74774885  0.06832820  0.34052386     0.08700
C439        C  0.73224754  0.04516160  0.34081643     0.02500
H440        H  0.77929764  0.08078646  0.35489446     0.10100
H441        H  0.71676207  0.03935197  0.33376248     0.09200
N442        N  0.79242483  0.01205351  0.39258686    -0.34600
N443        N  0.78397696  0.98870348  0.39726612    -0.26800
C444        C  0.79925507  0.98165795  0.40782076    -0.02000
C445        C  0.81836238  0.00150602  0.40987901     0.06600
C446        C  0.81329484  0.02054099  0.40004602     0.04700
H447        H  0.79666439  0.96332833  0.41351466     0.09800
H448        H  0.82453755  0.03874052  0.39811041     0.08600
N449        N  0.71710156  0.54853295  0.38033121    -0.25800
N450        N  0.70350240  0.53570552  0.37089720    -0.33600
C451        C  0.68061264  0.54914808  0.36841025     0.02600
C452        C  0.67970685  0.57150964  0.37670200     0.08600
C453        C  0.70325041  0.57045248  0.38409530    -0.04500
H454        H  0.66575616  0.54302068  0.36108976     0.09200
H455        H  0.70952427  0.58409812  0.39195433     0.10400
Cu456      Cu  0.71598594  0.49985772  0.36228133     0.44200
Cu457      Cu  0.75281298  0.53477169  0.38843449     0.42000
Cu458      Cu  0.77413978  0.46882054  0.37742329     0.43900
N459        N  0.73229255  0.46378780  0.35574671    -0.33200
N460        N  0.75344922  0.45230778  0.36134443    -0.27400
C461        C  0.75950259  0.42977674  0.35452072    -0.03500
C462        C  0.74134712  0.42694911  0.34405540     0.08700
C463        C  0.72433928  0.44889386  0.34520499     0.02500
H464        H  0.77656464  0.41704214  0.35670186     0.10100
H465        H  0.70753483  0.45390397  0.33878609     0.09200
N466        N  0.79232261  0.48996895  0.39289040    -0.34600
N467        N  0.78497062  0.51429858  0.39670916    -0.26800
C468        C  0.80023143  0.52197350  0.40717230    -0.02000
C469        C  0.81802914  0.50138815  0.41018113     0.06600
C470        C  0.81237342  0.48146365  0.40085494     0.04700
H471        H  0.79818074  0.54105972  0.41226122     0.09800
H472        H  0.82139900  0.46174721  0.40017618     0.08600
N473        N  0.28649471  0.54081897  0.36625465    -0.25800
N474        N  0.27577239  0.55139385  0.37719593    -0.33600
C475        C  0.28871821  0.57442296  0.38009253     0.02600
C476        C  0.30866533  0.57832525  0.37058162     0.08600
C477        C  0.30658829  0.55664325  0.36195917    -0.04500
H478        H  0.28485228  0.58663401  0.38887648     0.09200
H479        H  0.31918570  0.55226286  0.35337686     0.10400
Cu480      Cu  0.24605808  0.53247368  0.38844893     0.44200
Cu481      Cu  0.27523618  0.50433188  0.35816593     0.42000
Cu482      Cu  0.23084974  0.46407869  0.37853965     0.43900
N483        N  0.21858491  0.50807547  0.39842927    -0.33200
N484        N  0.21369334  0.48284678  0.39504891    -0.27400
C485        C  0.19482002  0.47276679  0.40331064    -0.03500
C486        C  0.18726976  0.49263591  0.41228605     0.08700
C487        C  0.20278648  0.51475024  0.40887745     0.02500
H488        H  0.18639874  0.45279016  0.40246384     0.10100
H489        H  0.20250365  0.53435262  0.41357944     0.09200
N490        N  0.24619018  0.45166053  0.36019262    -0.34600
N491        N  0.26201645  0.46662852  0.35261596    -0.26800
C492        C  0.26692906  0.45368066  0.34102588    -0.02000
C493        C  0.25347385  0.42930959  0.34127190     0.06600
C494        C  0.24063491  0.42873289  0.35363476     0.04700
H495        H  0.27867275  0.46191932  0.33286377     0.09800
H496        H  0.22794942  0.41296326  0.35758837     0.08600
O497        O  0.02813990  0.77956720  0.11648132    -0.71400
O498        O  0.97329319  0.72119781  0.11742435    -0.72400
O499        O  0.97133872  0.77795387  0.11714476    -0.61000
O500        O  0.03049931  0.72267662  0.11715197    -0.69500
O501        O  0.03059003  0.72322130  0.13939238    -0.69000
O502        O  0.97278969  0.77906990  0.13941164    -0.60300
O503        O  0.97315382  0.72192159  0.13963830    -0.72800
O504        O  0.02944638  0.78050412  0.13872080    -0.71500
Cu505      Cu  0.00081441  0.75024625  0.11629391     1.04600
Cu506      Cu  0.00154298  0.75111041  0.14007469     1.04300
C507        C  0.03728616  0.78962089  0.12735231     0.94800
C508        C  0.96402679  0.71253017  0.12856087     0.93900
C509        C  0.96301930  0.78748295  0.12833185     0.86000
C510        C  0.04006218  0.71432442  0.12832948     0.92300
O511        O  0.47087176  0.77993114  0.36394082    -0.71400
O512        O  0.52586767  0.72101373  0.36555796    -0.72400
O513        O  0.46892264  0.72331247  0.36408982    -0.61000
O514        O  0.52772808  0.77784496  0.36524377    -0.69500
O515        O  0.52591926  0.77842566  0.38744602    -0.69000
O516        O  0.46647775  0.72344394  0.38628641    -0.60300
O517        O  0.52379771  0.72145168  0.38777975    -0.72800
O518        O  0.46889021  0.78022800  0.38614074    -0.71500
Cu519      Cu  0.49844725  0.75047396  0.36395602     1.04600
Cu520      Cu  0.49621757  0.75086590  0.38769583     1.04300
C521        C  0.46099435  0.78935556  0.37481564     0.94800
C522        C  0.53374577  0.71203168  0.37692695     0.93900
C523        C  0.45799990  0.71496847  0.37491531     0.86000
C524        C  0.53619797  0.78694400  0.37646514     0.92300
O525        O  0.52869794  0.22292080  0.63910055    -0.71400
O526        O  0.47268271  0.28028207  0.63715868    -0.72400
O527        O  0.47143878  0.22332488  0.63848575    -0.61000
O528        O  0.52977220  0.27957065  0.63762067    -0.69500
O529        O  0.53049906  0.27725660  0.61543274    -0.69000
O530        O  0.47247706  0.22138956  0.61629231    -0.60300
O531        O  0.47339391  0.27832293  0.61495878    -0.72800
O532        O  0.52975313  0.22061364  0.61691643    -0.71500
Cu533      Cu  0.50058111  0.25156809  0.63885707     1.04600
Cu534      Cu  0.50151645  0.24928092  0.61513526     1.04300
C535        C  0.53858540  0.21299053  0.62835839     0.94800
C536        C  0.46414726  0.28856711  0.62579328     0.93900
C537        C  0.46255476  0.21353745  0.62746093     0.86000
C538        C  0.53956601  0.28718498  0.62636538     0.92300
O539        O  0.97718239  0.27703848  0.86394201    -0.71400
O540        O  0.03073834  0.21716507  0.86448831    -0.72400
O541        O  0.97407605  0.22036809  0.86515896    -0.61000
O542        O  0.03390857  0.27388681  0.86337896    -0.69500
O543        O  0.03454752  0.27660768  0.88555992    -0.69000
O544        O  0.97571078  0.22125781  0.88737530    -0.60300
O545        O  0.03303846  0.21963787  0.88671258    -0.72800
O546        O  0.97718767  0.27815058  0.88621750    -0.71500
Cu547      Cu  0.00395217  0.24705399  0.86349666     1.04600
Cu548      Cu  0.00516794  0.24897429  0.88726584     1.04300
C549        C  0.96844620  0.28687878  0.87495329     0.94800
C550        C  0.04054640  0.20906404  0.87562455     0.93900
C551        C  0.96536525  0.21221560  0.87651864     0.86000
C552        C  0.04371537  0.28391525  0.87412791     0.92300
C553        C  0.34356414  0.64559880  0.37428079     0.14200
C554        C  0.37041535  0.63860841  0.37167785     0.01100
C555        C  0.37673351  0.61191206  0.36837776     0.16100
C556        C  0.35658156  0.59241927  0.36779014     0.25500
C557        C  0.32973261  0.59924946  0.37061219    -0.40800
C558        C  0.32336825  0.62603654  0.37379809     0.32600
C559        C  0.39201190  0.65897021  0.37244447     0.01200
F560        F  0.40261056  0.60457423  0.36608086    -0.13100
F561        F  0.29752029  0.63338096  0.37613937    -0.13600
C562        C  0.39761683  0.67216188  0.38459675     0.16100
C563        C  0.41904972  0.69030767  0.38547002     0.25500
C564        C  0.43525697  0.69565081  0.37414511    -0.40800
C565        C  0.42910335  0.68268971  0.36190402     0.32500
C566        C  0.40776819  0.66453567  0.36110320     0.14200
F567        F  0.38266136  0.66700601  0.39571203    -0.13100
F568        F  0.44383772  0.68728219  0.35065651    -0.13600
F569        F  0.42369721  0.70274772  0.39738648    -0.15900
F570        F  0.40236811  0.65241656  0.34917821    -0.14500
F571        F  0.33688942  0.67144561  0.37708904    -0.14500
F572        F  0.36355885  0.56664732  0.36499793    -0.15900
C573        C  0.61058487  0.60354800  0.37637162     0.14200
C574        C  0.61679807  0.63067491  0.37870305     0.01100
C575        C  0.64367329  0.63817361  0.38082489     0.16100
C576        C  0.66411538  0.61891346  0.38033166     0.25500
C577        C  0.65801118  0.59178945  0.37767398    -0.40800
C578        C  0.63097692  0.58426872  0.37585156     0.32600
C579        C  0.59534026  0.65124338  0.37840332     0.01200
F580        F  0.65021992  0.66433326  0.38290870    -0.13100
F581        F  0.62414312  0.55816488  0.37386004    -0.13600
C582        C  0.59014382  0.66730499  0.38970360     0.16100
C583        C  0.56999699  0.68690070  0.38929311     0.25500
C584        C  0.55469877  0.69084156  0.37751829    -0.40800
C585        C  0.56001847  0.67461539  0.36622023     0.32500
C586        C  0.58012151  0.65503964  0.36668039     0.14200
F587        F  0.60447161  0.66385285  0.40118605    -0.13100
F588        F  0.54563100  0.67745194  0.35471826    -0.13600
F589        F  0.56592935  0.70236698  0.40034648    -0.15900
F590        F  0.58510048  0.64005167  0.35555388    -0.14500
F591        F  0.58466137  0.59571310  0.37469684    -0.14500
F592        F  0.68995836  0.62705170  0.38190717    -0.15900
C593        C  0.58725006  0.83867400  0.36466933     0.14200
C594        C  0.59902129  0.84675791  0.37681412     0.01100
C595        C  0.59023209  0.83516050  0.38889025     0.16100
C596        C  0.56984271  0.81576536  0.38883789     0.25500
C597        C  0.55791784  0.80750585  0.37664399    -0.40800
C598        C  0.56699741  0.81924116  0.36454467     0.32600
C599        C  0.62065281  0.86714222  0.37676098     0.01200
F600        F  0.60117895  0.84291520  0.40076988    -0.13100
F601        F  0.55630818  0.81208829  0.35251224    -0.13600
C602        C  0.61551338  0.89322205  0.37204914     0.16100
C603        C  0.63623848  0.91212139  0.37126756     0.25500
C604        C  0.66256497  0.90523306  0.37515246    -0.40800
C605        C  0.66754494  0.87918446  0.38010565     0.32500
C606        C  0.64673719  0.86032748  0.38090762     0.14200
F607        F  0.59028185  0.90044771  0.36832193    -0.13100
F608        F  0.69272462  0.87159981  0.38371951    -0.13600
F609        F  0.63032255  0.93736238  0.36704080    -0.15900
F610        F  0.65221112  0.83511168  0.38533688    -0.14500
F611        F  0.59571679  0.84936677  0.35285136    -0.14500
F612        F  0.56197415  0.80504392  0.40074513    -0.15900
C613        C  0.41112971  0.84284870  0.38585461     0.14200
C614        C  0.40061620  0.85143234  0.37352573     0.01100
C615        C  0.40984078  0.83969849  0.36158431     0.16100
C616        C  0.42940048  0.81951002  0.36195228     0.25500
C617        C  0.44024160  0.81083709  0.37433341    -0.40800
C618        C  0.43076008  0.82280875  0.38629506     0.32600
C619        C  0.37938346  0.87210202  0.37324520     0.01200
F620        F  0.39946704  0.84743633  0.34957682    -0.13100
F621        F  0.44036852  0.81521940  0.39848435    -0.13600
C622        C  0.38524105  0.89847777  0.36923325     0.16100
C623        C  0.36521178  0.91824738  0.36951612     0.25500
C624        C  0.33895783  0.91183452  0.37378194    -0.40800
C625        C  0.33321704  0.88520438  0.37764583     0.32500
C626        C  0.35328637  0.86557908  0.37740500     0.14200
F627        F  0.41052621  0.90516849  0.36534467    -0.13100
F628        F  0.30799520  0.87788209  0.38130911    -0.13600
F629        F  0.37176772  0.94379302  0.36604186    -0.15900
F630        F  0.34721833  0.84003785  0.38112230    -0.14500
F631        F  0.40237749  0.85402310  0.39750579    -0.14500
F632        F  0.43732901  0.80825513  0.35017535    -0.15900
C633        C  0.15350812  0.64303274  0.12699382     0.14200
C634        C  0.12634605  0.63624915  0.12886342     0.01100
C635        C  0.11908274  0.60910471  0.13010041     0.16100
C636        C  0.13858468  0.58898088  0.12932071     0.25500
C637        C  0.16573674  0.59565203  0.12724020    -0.40800
C638        C  0.17307401  0.62286769  0.12615267     0.32600
C639        C  0.10527449  0.65721990  0.12900371     0.01200
F640        F  0.09290539  0.60205755  0.13164983    -0.13100
F641        F  0.19923777  0.62995603  0.12461199    -0.13600
C642        C  0.10017044  0.67246766  0.11742400     0.16100
C643        C  0.07891853  0.69086801  0.11714815     0.25500
C644        C  0.06243775  0.69453108  0.12852934    -0.40800
C645        C  0.06794432  0.67941282  0.14020936     0.32500
C646        C  0.08912926  0.66093703  0.14041268     0.14200
F647        F  0.11540322  0.66901307  0.10623950    -0.13100
F648        F  0.05250794  0.68200863  0.15138175    -0.13600
F649        F  0.07469577  0.70523505  0.10575067    -0.15900
F650        F  0.09390790  0.64659586  0.15177141    -0.14500
F651        F  0.16106849  0.66919077  0.12613508    -0.14500
F652        F  0.13073189  0.56289865  0.13007399    -0.15900
C653        C  0.88856264  0.60420316  0.13137357     0.14200
C654        C  0.88146338  0.63044726  0.12766514     0.01100
C655        C  0.85519946  0.63578285  0.12329507     0.16100
C656        C  0.83619628  0.61510070  0.12266241     0.25500
C657        C  0.84323612  0.58869669  0.12635949    -0.40800
C658        C  0.86962563  0.58347428  0.13074250     0.32600
C659        C  0.90179043  0.65204654  0.12798063     0.01200
F660        F  0.84790908  0.66112094  0.11979559    -0.13100
F661        F  0.87738570  0.55815597  0.13400270    -0.13600
C662        C  0.91228430  0.66213474  0.11594604     0.16100
C663        C  0.93238766  0.68173257  0.11613524     0.25500
C664        C  0.94246570  0.69172888  0.12845294    -0.40800
C665        C  0.93139114  0.68178819  0.14053217     0.32500
C666        C  0.91129482  0.66207786  0.14026274     0.14200
F667        F  0.90337695  0.65256583  0.10396615    -0.13100
F668        F  0.93989594  0.69105241  0.15263434    -0.13600
F669        F  0.94195250  0.69073801  0.10418064    -0.15900
F670        F  0.90092843  0.65284999  0.15200603    -0.14500
F671        F  0.91407664  0.59857782  0.13529921    -0.14500
F672        F  0.81073327  0.62110810  0.11880787    -0.15900
C673        C  0.92276721  0.84866227  0.13866403     0.14200
C674        C  0.90168107  0.84835128  0.12924779     0.01100
C675        C  0.90109930  0.82793794  0.11944882     0.16100
C676        C  0.92128908  0.80842157  0.11899344     0.25500
C677        C  0.94207303  0.80849524  0.12854434    -0.40800
C678        C  0.94257681  0.82873877  0.13841934     0.32600
C679        C  0.88026796  0.86916042  0.12961886     0.01200
F680        F  0.88056489  0.82646851  0.11049717    -0.13100
F681        F  0.96267978  0.82967818  0.14763775    -0.13600
C682        C  0.87366925  0.88365283  0.11794320     0.16100
C683        C  0.85264433  0.90225550  0.11805622     0.25500
C684        C  0.83818229  0.90725887  0.12992886    -0.40800
C685        C  0.84530024  0.89345688  0.14173108     0.32500
C686        C  0.86594053  0.87434340  0.14154302     0.14200
F687        F  0.88788400  0.88009785  0.10643586    -0.13100
F688        F  0.83160345  0.89769808  0.15333499    -0.13600
F689        F  0.84693695  0.91594141  0.10661012    -0.15900
F690        F  0.87134031  0.86029650  0.15292110    -0.14500
F691        F  0.92452764  0.86858825  0.14794403    -0.14500
F692        F  0.91998793  0.78890250  0.10948239    -0.15900
C693        C  0.10579412  0.90444919  0.12308565     0.14200
C694        C  0.11326401  0.87732362  0.12415526     0.01100
C695        C  0.14061491  0.87046527  0.12442404     0.16100
C696        C  0.16031845  0.89041340  0.12356517     0.25500
C697        C  0.15295008  0.91758379  0.12255051    -0.40800
C698        C  0.12553207  0.92448697  0.12234756     0.32600
C699        C  0.09276960  0.85588157  0.12480434     0.01200
F700        F  0.14817607  0.84438939  0.12575433    -0.13100
F701        F  0.11790798  0.95055740  0.12108271    -0.13600
C702        C  0.08962847  0.83819592  0.11395460     0.16100
C703        C  0.07172207  0.81663697  0.11480469     0.25500
C704        C  0.05667857  0.81223258  0.12661701    -0.40800
C705        C  0.05970142  0.83025195  0.13744693     0.32500
C706        C  0.07748246  0.85199928  0.13649257     0.14200
F707        F  0.10401422  0.84184604  0.10250680    -0.13100
F708        F  0.04517759  0.82712356  0.14888626    -0.13600
F709        F  0.06955794  0.79980111  0.10412076    -0.15900
F710        F  0.08015923  0.86901770  0.14706952    -0.14500
F711        F  0.07944394  0.91142734  0.12253038    -0.14500
F712        F  0.18660638  0.88325835  0.12419739    -0.15900
C713        C  0.25935615  0.36390743  0.17510475     0.14200
C714        C  0.25059795  0.36997968  0.18817023     0.01100
C715        C  0.24269477  0.39635417  0.19124119     0.16100
C716        C  0.24321429  0.41632862  0.18137416     0.25500
C717        C  0.25160049  0.41025598  0.16820989    -0.40800
C718        C  0.25984438  0.38385651  0.16519650     0.32600
C719        C  0.24944177  0.34886813  0.19862930     0.01200
F720        F  0.23484715  0.40284114  0.20389758    -0.13100
F721        F  0.26745503  0.37705837  0.15254890    -0.13600
C722        C  0.27299742  0.33620546  0.20307012     0.16100
C723        C  0.27199473  0.31705231  0.21335983     0.25500
C724        C  0.24727536  0.31008390  0.21941669    -0.40800
C725        C  0.22360875  0.32260222  0.21469679     0.32500
C726        C  0.22475660  0.34178786  0.20444046     0.14200
F727        F  0.29711265  0.34282212  0.19761132    -0.13100
F728        F  0.19923433  0.31648108  0.21999961    -0.13600
F729        F  0.29532446  0.30536368  0.21732401    -0.15900
F730        F  0.20164257  0.35336260  0.20006999    -0.14500
F731        F  0.26675511  0.33846821  0.17185423    -0.14500
F732        F  0.23618003  0.44176030  0.18482605    -0.15900
C733        C  0.25239077  0.14475380  0.17402287     0.14200
C734        C  0.24442905  0.13819771  0.18713733     0.01100
C735        C  0.23525671  0.11217400  0.18997548     0.16100
C736        C  0.23402850  0.09282845  0.17982396     0.25500
C737        C  0.24233369  0.09914678  0.16667394    -0.40800
C738        C  0.25144208  0.12535694  0.16386012     0.32600
C739        C  0.24507526  0.15855675  0.19788306     0.01200
F740        F  0.22730327  0.10559834  0.20260482    -0.13100
F741        F  0.25881564  0.13241718  0.15121358    -0.13600
C742        C  0.22657315  0.17981705  0.19780898     0.16100
C743        C  0.22594166  0.19814946  0.20843965     0.25500
C744        C  0.24418066  0.19572059  0.21916625    -0.40800
C745        C  0.26309226  0.17471923  0.21906992     0.32500
C746        C  0.26337318  0.15613224  0.20854567     0.14200
F747        F  0.20883947  0.18251355  0.18753140    -0.13100
F748        F  0.28082897  0.17179053  0.22933566    -0.13600
F749        F  0.20792174  0.21862034  0.20809764    -0.15900
F750        F  0.28150789  0.13575669  0.20872980    -0.14500
F751        F  0.26130072  0.16987894  0.17111239    -0.14500
F752        F  0.22544541  0.06772912  0.18298599    -0.15900
C753        C  0.27221284  0.38574188  0.31139024     0.14200
C754        C  0.24897025  0.37000110  0.30983821     0.01100
C755        C  0.22718539  0.37399541  0.31856951     0.16100
C756        C  0.22855685  0.39340294  0.32868587     0.25500
C757        C  0.25195212  0.40897499  0.33040928    -0.40800
C758        C  0.27376093  0.40497279  0.32160700     0.32600
C759        C  0.24756288  0.34920682  0.29922304     0.01200
F760        F  0.20465169  0.35877642  0.31742963    -0.13100
F761        F  0.29688213  0.41915574  0.32304796    -0.13600
C762        C  0.26686911  0.32865304  0.29872575     0.16100
C763        C  0.26581859  0.30915774  0.28864868     0.25500
C764        C  0.24519228  0.30961787  0.27897559    -0.40800
C765        C  0.22557736  0.32993746  0.27961027     0.32500
C766        C  0.22688296  0.34968496  0.28959671     0.14200
F767        F  0.28648519  0.32715484  0.30818043    -0.13100
F768        F  0.20562610  0.33120337  0.27032618    -0.13600
F769        F  0.28463928  0.28940704  0.28856602    -0.15900
F770        F  0.20829062  0.36964913  0.28969213    -0.14500
F771        F  0.29338208  0.38261803  0.30292347    -0.14500
F772        F  0.20664174  0.39733922  0.33655214    -0.15900
C773        C  0.21552638  0.16223581  0.29305757     0.14200
C774        C  0.23939320  0.15025128  0.29767152     0.01100
C775        C  0.26405605  0.15947877  0.29257105     0.16100
C776        C  0.26490155  0.18002557  0.28296898     0.25500
C777        C  0.24101411  0.19212121  0.27825707    -0.40800
C778        C  0.21628228  0.18294053  0.28350160     0.32600
C779        C  0.23866340  0.12806551  0.30772902     0.01200
F780        F  0.28751739  0.14881492  0.29704782    -0.13100
F781        F  0.19267234  0.19383276  0.27938226    -0.13600
C782        C  0.25106237  0.10327653  0.30496281     0.16100
C783        C  0.25091803  0.08256546  0.31449774     0.25500
C784        C  0.23823892  0.08609353  0.32704144    -0.40800
C785        C  0.22566099  0.11089792  0.32975081     0.32500
C786        C  0.22591441  0.13162111  0.32021307     0.14200
F787        F  0.26297522  0.09892093  0.29288468    -0.13100
F788        F  0.21396705  0.11560955  0.34183837    -0.13600
F789        F  0.26266717  0.05882455  0.31126257    -0.15900
F790        F  0.21437073  0.15552267  0.32335829    -0.14500
F791        F  0.19133488  0.15348556  0.29760236    -0.14500
F792        F  0.28928120  0.18790514  0.27828694    -0.15900
C793        C  0.88807114  0.10521901  0.87426984     0.14200
C794        C  0.88167102  0.13139348  0.87847692     0.01100
C795        C  0.85538211  0.13710137  0.88270387     0.16100
C796        C  0.83562530  0.11711528  0.88243448     0.25500
C797        C  0.84180895  0.09096360  0.87791849    -0.40800
C798        C  0.86837019  0.08519830  0.87397941     0.32600
C799        C  0.90229142  0.15282902  0.87800240     0.01200
F800        F  0.84857047  0.16233092  0.88662539    -0.13100
F801        F  0.87550024  0.06007113  0.87006209    -0.13600
C802        C  0.91503672  0.15897159  0.86580731     0.16100
C803        C  0.93535053  0.17829909  0.86530768     0.25500
C804        C  0.94327646  0.19213608  0.87703350    -0.40800
C805        C  0.92985972  0.18644965  0.88919900     0.32500
C806        C  0.90960646  0.16694573  0.88966256     0.14200
F807        F  0.90763747  0.14629922  0.85430086    -0.13100
F808        F  0.93618490  0.19977162  0.90067703    -0.13600
F809        F  0.94744297  0.18308701  0.85331690    -0.15900
F810        F  0.89751928  0.16143894  0.90157796    -0.14500
F811        F  0.91355688  0.09900991  0.87051195    -0.14500
F812        F  0.81020357  0.12382447  0.88603765    -0.15900
C813        C  0.07797928  0.14585372  0.86591326     0.14200
C814        C  0.09964226  0.14618808  0.87495488     0.01100
C815        C  0.10176306  0.16729746  0.88429215     0.16100
C816        C  0.08235006  0.18761828  0.88466179     0.25500
C817        C  0.06071405  0.18732334  0.87556951    -0.40800
C818        C  0.05875810  0.16629678  0.86617073     0.32600
C819        C  0.11964707  0.12418883  0.87481773     0.01200
F820        F  0.12293290  0.16847724  0.89288239    -0.13100
F821        F  0.03778089  0.16511406  0.85746606    -0.13600
C822        C  0.13421750  0.11830685  0.86308240     0.16100
C823        C  0.15285883  0.09727969  0.86294954     0.25500
C824        C  0.15738574  0.08190388  0.87460166    -0.40800
C825        C  0.14259888  0.08771892  0.88630049     0.32500
C826        C  0.12390675  0.10864746  0.88639525     0.14200
F827        F  0.13087780  0.13339396  0.85183949    -0.13100
F828        F  0.14573891  0.07273474  0.89758706    -0.13600
F829        F  0.16718516  0.09270730  0.85157297    -0.15900
F830        F  0.10955500  0.11343625  0.89774756    -0.14500
F831        F  0.07509782  0.12534667  0.85702795    -0.14500
F832        F  0.08516611  0.20800483  0.89362116    -0.15900
C833        C  0.58847878  0.97372130  0.04473940     0.14200
C834        C  0.59924900  0.99758737  0.04995296     0.01100
C835        C  0.58988629  0.02234109  0.04509414     0.16100
C836        C  0.57025578  0.02327476  0.03503993     0.25500
C837        C  0.55945535  0.99933672  0.02964361    -0.40800
C838        C  0.56874246  0.97451916  0.03473291     0.32600
C839        C  0.62024676  0.99672726  0.06048363     0.01200
F840        F  0.60011408  0.04569441  0.04996387    -0.13100
F841        F  0.55873245  0.95088104  0.03011470    -0.13600
C842        C  0.64554682  0.98548487  0.05775710     0.16100
C843        C  0.66569022  0.98550829  0.06758812     0.25500
C844        C  0.66080125  0.99669629  0.08037162    -0.40800
C845        C  0.63513482  0.00732323  0.08313872     0.32500
C846        C  0.61514913  0.00746047  0.07326484     0.14200
F847        F  0.65096223  0.97514524  0.04542488    -0.13100
F848        F  0.62902731  0.01695554  0.09552287    -0.13600
F849        F  0.69020704  0.97541812  0.06440049    -0.15900
F850        F  0.59059492  0.01774756  0.07624406    -0.14500
F851        F  0.59680621  0.94956602  0.04951704    -0.14500
F852        F  0.56195558  0.04771379  0.03062608    -0.15900
C853        C  0.40697815  0.98090263  0.04187650     0.14200
C854        C  0.39916322  0.00530199  0.04781034     0.01100
C855        C  0.41215663  0.02911384  0.04388170     0.16100
C856        C  0.43291408  0.02851346  0.03439749     0.25500
C857        C  0.44105526  0.00401402  0.02852175    -0.40800
C858        C  0.42752752  0.98024502  0.03229292     0.32600
C859        C  0.37772438  0.00582803  0.05820520     0.01200
F860        F  0.40448441  0.05311481  0.04911332    -0.13100
F861        F  0.43399249  0.95621924  0.02669654    -0.13600
C862        C  0.38276753  0.01694146  0.07094404     0.16100
C863        C  0.36277981  0.01701044  0.08084043     0.25500
C864        C  0.33728119  0.00578352  0.07823994    -0.40800
C865        C  0.33225472  0.99482707  0.06542171     0.32500
C866        C  0.35223474  0.99490108  0.05552640     0.14200
F867        F  0.40738083  0.02708479  0.07394844    -0.13100
F868        F  0.30773923  0.98470195  0.06226056    -0.13600
F869        F  0.36882528  0.02728200  0.09310461    -0.15900
F870        F  0.34648025  0.98471191  0.04320106    -0.14500
F871        F  0.39504366  0.95749872  0.04556214    -0.14500
F872        F  0.44500737  0.05202756  0.03103845    -0.15900
C873        C  0.58129321  0.97710860  0.95139779     0.14200
C874        C  0.59772773  0.99963665  0.94921606     0.01100
C875        C  0.59502669  0.02212412  0.95762374     0.16100
C876        C  0.57609112  0.02224647  0.96798828     0.25500
C877        C  0.55940764  0.99977669  0.97020738    -0.40800
C878        C  0.56233125  0.97712183  0.96180041     0.32600
C879        C  0.61751393  0.00003167  0.93809723     0.01200
F880        F  0.61043636  0.04428632  0.95561468    -0.13100
F881        F  0.54646392  0.95516313  0.96341222    -0.13600
C882        C  0.60903108  0.99729361  0.92469201     0.16100
C883        C  0.62759904  0.99915411  0.91417038     0.25500
C884        C  0.65489541  0.00405568  0.91689325    -0.40800
C885        C  0.66339678  0.00642036  0.93031905     0.32500
C886        C  0.64489109  0.00427639  0.94082013     0.14200
F887        F  0.58262323  0.99369437  0.92177595    -0.13100
F888        F  0.68975634  0.01010394  0.93331484    -0.13600
F889        F  0.61872760  0.99717223  0.90130807    -0.15900
F890        F  0.65374066  0.00609193  0.95369331    -0.14500
F891        F  0.58376449  0.95499061  0.94350209    -0.14500
F892        F  0.57428961  0.04440120  0.97589639    -0.15900
C893        C  0.42008523  0.02496068  0.95208184     0.14200
C894        C  0.39953117  0.00564492  0.95255991     0.01100
C895        C  0.39985205  0.98599824  0.96267679     0.16100
C896        C  0.42077020  0.98522425  0.97200533     0.25500
C897        C  0.44161109  0.00429205  0.97144694    -0.40800
C898        C  0.44094804  0.02436063  0.96149388     0.32600
C899        C  0.37850971  0.00492199  0.94210676     0.01200
F900        F  0.37975843  0.96760840  0.96353471    -0.13100
F901        F  0.46097009  0.04280975  0.96058777    -0.13600
C902        C  0.37618625  0.98225805  0.93381828     0.16100
C903        C  0.35627882  0.98103028  0.92398753     0.25500
C904        C  0.33844939  0.00268043  0.92210310    -0.40800
C905        C  0.34074271  0.02540940  0.93049147     0.32500
C906        C  0.36066700  0.02649688  0.94040730     0.14200
F907        F  0.39350793  0.96134684  0.93515413    -0.13100
F908        F  0.32426967  0.04690113  0.92890053    -0.13600
F909        F  0.35417846  0.95829381  0.91653351    -0.15900
F910        F  0.36243852  0.04851368  0.94841958    -0.14500
F911        F  0.42040001  0.04383855  0.94223628    -0.14500
F912        F  0.42031100  0.96616994  0.98176748    -0.15900
C913        C  0.72690859  0.32671871  0.20078445     0.14200
C914        C  0.74629070  0.34731104  0.20104012     0.01100
C915        C  0.76483259  0.34827638  0.21168083     0.16100
C916        C  0.76427548  0.32882205  0.22177816     0.25500
C917        C  0.74488328  0.30828629  0.22155080    -0.40800
C918        C  0.72601473  0.30752722  0.21104487     0.32600
C919        C  0.74682397  0.36819233  0.19043530     0.01200
F920        F  0.78312182  0.36846581  0.21247240    -0.13100
F921        F  0.70726034  0.28773460  0.21048029    -0.13600
C922        C  0.72374048  0.38351768  0.18773594     0.16100
C923        C  0.72433836  0.40374072  0.17801272     0.25500
C924        C  0.74816310  0.40931882  0.17094676    -0.40800
C925        C  0.77131273  0.39403921  0.17366389     0.32500
C926        C  0.77057168  0.37348065  0.18323802     0.14200
F927        F  0.70079482  0.37947770  0.19483334    -0.13100
F928        F  0.79447842  0.39851534  0.16681667    -0.13600
F929        F  0.70185278  0.41858276  0.17590254    -0.15900
F930        F  0.79296579  0.35847920  0.18535948    -0.14500
F931        F  0.70918387  0.32488749  0.19045123    -0.14500
F932        F  0.78224670  0.33051640  0.23201163    -0.15900
C933        C  0.76821014  0.15621148  0.20941644     0.14200
C934        C  0.74489630  0.15112469  0.20190320     0.01100
C935        C  0.72152186  0.16596697  0.20456849     0.16100
C936        C  0.72148849  0.18575247  0.21457022     0.25500
C937        C  0.74498260  0.19116823  0.22205798    -0.40800
C938        C  0.76830509  0.17601011  0.21938133     0.32600
C939        C  0.74502540  0.13011316  0.19138095     0.01200
F940        F  0.69859316  0.16101335  0.19759441    -0.13100
F941        F  0.79119998  0.18000294  0.22652362    -0.13600
C942        C  0.74984220  0.10321141  0.19484469     0.16100
C943        C  0.75060942  0.08333009  0.18493521     0.25500
C944        C  0.74657503  0.08999250  0.17132834    -0.40800
C945        C  0.74176075  0.11702368  0.16787831     0.32500
C946        C  0.74092744  0.13688781  0.17783657     0.14200
F947        F  0.75336821  0.09613405  0.20790088    -0.13100
F948        F  0.73876144  0.12441737  0.15483733    -0.13600
F949        F  0.75452470  0.05744686  0.18875036    -0.15900
F950        F  0.73679697  0.16287309  0.17423048    -0.14500
F951        F  0.79106662  0.14214428  0.20697401    -0.14500
F952        F  0.69850921  0.19978736  0.21676341    -0.15900
C953        C  0.72069865  0.34087099  0.29454046     0.14200
C954        C  0.74417335  0.34732253  0.30165154     0.01100
C955        C  0.76848776  0.33497458  0.29803650     0.16100
C956        C  0.76929933  0.31628440  0.28751872     0.25500
C957        C  0.74566415  0.30942814  0.28045297    -0.40800
C958        C  0.72139046  0.32222273  0.28404758     0.32600
C959        C  0.74331241  0.36748800  0.31259568     0.01200
F960        F  0.79157036  0.34134593  0.30457964    -0.13100
F961        F  0.69818381  0.31689308  0.27738746    -0.13600
C962        C  0.75045304  0.36048275  0.32579825     0.16100
C963        C  0.74959166  0.37970132  0.33607684     0.25500
C964        C  0.74155908  0.40628239  0.33331046    -0.40800
C965        C  0.73428178  0.41312645  0.32007168     0.32500
C966        C  0.73515852  0.39391787  0.30984100     0.14200
F967        F  0.75776260  0.33488133  0.32877600    -0.13100
F968        F  0.72728160  0.43868188  0.31686093    -0.13600
F969        F  0.75596628  0.37209895  0.34878150    -0.15900
F970        F  0.72864789  0.40130776  0.29711956    -0.14500
F971        F  0.69691100  0.35242384  0.29789707    -0.14500
F972        F  0.79322987  0.30479180  0.28438566    -0.15900
C973        C  0.77237481  0.16080137  0.29465770     0.14200
C974        C  0.74850745  0.15328614  0.30110135     0.01100
C975        C  0.72434438  0.16588386  0.29763419     0.16100
C976        C  0.72385390  0.18560660  0.28765725     0.25500
C977        C  0.74768449  0.19310649  0.28094198    -0.40800
C978        C  0.77204875  0.18054872  0.28465937     0.32600
C979        C  0.74852617  0.13164736  0.31117307     0.01200
F980        F  0.70113434  0.15888752  0.30388969    -0.13100
F981        F  0.79555444  0.18696326  0.27851824    -0.13600
C982        C  0.75282910  0.13753013  0.32476670     0.16100
C983        C  0.75227033  0.11698124  0.33433940     0.25500
C984        C  0.74741037  0.09018431  0.33042305    -0.40800
C985        C  0.74280324  0.08449281  0.31675212     0.32500
C986        C  0.74343669  0.10510449  0.30721144     0.14200
F987        F  0.75732061  0.16323251  0.32875985    -0.13100
F988        F  0.73845412  0.05892558  0.31253567    -0.13600
F989        F  0.75571915  0.12346386  0.34747436    -0.15900
F990        F  0.73919789  0.09920537  0.29406087    -0.14500
F991        F  0.79594490  0.14874309  0.29795367    -0.14500
F992        F  0.69997049  0.19730262  0.28463262    -0.15900
C993        C  0.15489624  0.35726145  0.87389397     0.14200
C994        C  0.12833007  0.36359765  0.87042905     0.01100
C995        C  0.12210613  0.38975725  0.86619051     0.16100
C996        C  0.14205658  0.40958191  0.86578260     0.25500
C997        C  0.16866702  0.40351440  0.86958569    -0.40800
C998        C  0.17492462  0.37697649  0.87342778     0.32600
C999        C  0.10701805  0.34298830  0.87138868     0.01200
F1000       F  0.09648008  0.39627000  0.86282194    -0.13100
F1001       F  0.20054388  0.36989007  0.87646784    -0.13600
C1002       C  0.09891710  0.33319216  0.88397163     0.16100
C1003       C  0.07842555  0.31400945  0.88492697     0.25500
C1004       C  0.06570333  0.30413340  0.87324180    -0.40800
C1005       C  0.07422045  0.31394350  0.86061824     0.32500
C1006       C  0.09457271  0.33322477  0.85974233     0.14200
F1007       F  0.11059901  0.34259456  0.89537154    -0.13100
F1008       F  0.06283871  0.30507355  0.84904064    -0.13600
F1009       F  0.07115721  0.30519431  0.89731360    -0.15900
F1010       F  0.10235752  0.34221984  0.84746743    -0.14500
F1011       F  0.16145846  0.33184198  0.87760437    -0.14500
F1012       F  0.13501029  0.43491592  0.86218167    -0.15900
C1013       C  0.88529787  0.38834200  0.88455730     0.14200
C1014       C  0.88880718  0.37163153  0.87329815     0.01100
C1015       C  0.87304824  0.37618869  0.86177633     0.16100
C1016       C  0.85405211  0.39696094  0.86156102     0.25500
C1017       C  0.85008856  0.41319980  0.87295909    -0.40800
C1018       C  0.86599135  0.40876754  0.88442836     0.32600
C1019       C  0.90894534  0.34958526  0.87360794     0.01200
F1020       F  0.87546027  0.35997900  0.85086754    -0.13100
F1021       F  0.86324306  0.42462104  0.89544357    -0.13600
C1022       C  0.90837946  0.33017717  0.88389538     0.16100
C1023       C  0.92789473  0.30995122  0.88444426     0.25500
C1024       C  0.94805785  0.30846415  0.87457265    -0.40800
C1025       C  0.94833558  0.32756982  0.86415616     0.32500
C1026       C  0.92910857  0.34804447  0.86374049     0.14200
F1027       F  0.88857531  0.33049170  0.89327685    -0.13100
F1028       F  0.96772804  0.32690381  0.85456480    -0.13600
F1029       F  0.92656895  0.29133501  0.89439667    -0.15900
F1030       F  0.93061146  0.36679125  0.85386234    -0.14500
F1031       F  0.90088446  0.38512808  0.89563970    -0.14500
F1032       F  0.83873755  0.40042126  0.85040863    -0.15900
C1033       C  0.38930013  0.49135697  0.07230238     0.14200
C1034       C  0.38366641  0.49818456  0.05890947     0.01100
C1035       C  0.35756432  0.50631877  0.05541107     0.16100
C1036       C  0.33729666  0.50747622  0.06513640     0.25500
C1037       C  0.34281247  0.50047728  0.07854744    -0.40800
C1038       C  0.36904966  0.49248152  0.08204799     0.32600
C1039       C  0.40496340  0.49712657  0.04854093     0.01200
F1040       F  0.35161837  0.51264033  0.04247959    -0.13100
F1041       F  0.37531282  0.48650117  0.09498306    -0.13600
C1042       C  0.41610137  0.47246890  0.04457231     0.16100
C1043       C  0.43540070  0.47146029  0.03432516     0.25500
C1044       C  0.44416445  0.49525711  0.02792946    -0.40800
C1045       C  0.43303994  0.51998434  0.03214378     0.32500
C1046       C  0.41365524  0.52082624  0.04230121     0.14200
F1047       F  0.40792944  0.44928388  0.05049302    -0.13100
F1048       F  0.44083091  0.54354114  0.02648023    -0.13600
F1049       F  0.44550758  0.44714743  0.03076365    -0.15900
F1050       F  0.40351837  0.54493806  0.04618319    -0.14500
F1051       F  0.41455524  0.48413206  0.07598399    -0.14500
F1052       F  0.31208253  0.51455900  0.06133129    -0.15900
C1053       C  0.61233030  0.49785470  0.07540134     0.14200
C1054       C  0.61962638  0.49942345  0.06182371     0.01100
C1055       C  0.64666657  0.50329233  0.05835459     0.16100
C1056       C  0.66632907  0.50514257  0.06836970     0.25500
C1057       C  0.65918693  0.50300678  0.08202922    -0.40800
C1058       C  0.63192642  0.49957468  0.08543680     0.32600
C1059       C  0.59886979  0.49767067  0.05128227     0.01200
F1060       F  0.65397205  0.50531630  0.04525056    -0.13100
F1061       F  0.62411779  0.49851809  0.09849226    -0.13600
C1062       C  0.58342853  0.52030078  0.04811601     0.16100
C1063       C  0.56395530  0.51899547  0.03803004     0.25500
C1064       C  0.55957240  0.49490772  0.03085234    -0.40800
C1065       C  0.57475863  0.47198286  0.03433505     0.32500
C1066       C  0.59433448  0.47345626  0.04443184     0.14200
F1067       F  0.58744314  0.54381647  0.05473765    -0.13100
F1068       F  0.57110653  0.44826644  0.02784319    -0.13600
F1069       F  0.54929200  0.54138210  0.03539386    -0.15900
F1070       F  0.60893647  0.45126338  0.04753209    -0.14500
F1071       F  0.58616979  0.49461428  0.07891363    -0.14500
F1072       F  0.69239783  0.50816982  0.06465886    -0.15900
C1073       C  0.39537436  0.50412493  0.92368315     0.14200
C1074       C  0.38992463  0.49517826  0.93678567     0.01100
C1075       C  0.36400297  0.48577397  0.93986343     0.16100
C1076       C  0.34391975  0.48512464  0.93000489     0.25500
C1077       C  0.34932413  0.49400545  0.91684250    -0.40800
C1078       C  0.37533049  0.50349890  0.91380440     0.32600
C1079       C  0.41131733  0.49504119  0.94720626     0.01200
F1080       F  0.35801092  0.47763178  0.95253383    -0.13100
F1081       F  0.38173486  0.51132414  0.90114113    -0.13600
C1082       C  0.42383564  0.51901434  0.95125551     0.16100
C1083       C  0.44316398  0.51885328  0.96150952     0.25500
C1084       C  0.45042679  0.49460592  0.96796182    -0.40800
C1085       C  0.43828597  0.47052653  0.96355007     0.32500
C1086       C  0.41898127  0.47080916  0.95332069     0.14200
F1087       F  0.41684590  0.54274606  0.94550243    -0.13100
F1088       F  0.44477195  0.44657101  0.96919906    -0.13600
F1089       F  0.45461459  0.54255182  0.96510881    -0.15900
F1090       F  0.40780182  0.44725305  0.94929929    -0.14500
F1091       F  0.42036296  0.51280780  0.92034743    -0.14500
F1092       F  0.31899923  0.47650122  0.93348191    -0.15900
C1093       C  0.65817144  0.49070053  0.94576578     0.14200
C1094       C  0.63108050  0.49604356  0.94294112     0.01100
C1095       C  0.62332301  0.50173798  0.92971163     0.16100
C1096       C  0.64229426  0.50181297  0.91936025     0.25500
C1097       C  0.66957428  0.49631589  0.92206281    -0.40800
C1098       C  0.67729605  0.49079042  0.93542212     0.32600
C1099       C  0.61050817  0.49482358  0.95362654     0.01200
F1100       F  0.59720614  0.50711274  0.92681868    -0.13100
F1101       F  0.70338992  0.48598993  0.93856397    -0.13600
C1102       C  0.60715382  0.51629249  0.96259977     0.16100
C1103       C  0.58619338  0.51593448  0.97199355     0.25500
C1104       C  0.56834508  0.49392345  0.97262261    -0.40800
C1105       C  0.57235814  0.47209502  0.96382763     0.32500
C1106       C  0.59314038  0.47267512  0.95436622     0.14200
F1107       F  0.62381350  0.53787392  0.96204154    -0.13100
F1108       F  0.55563207  0.45054814  0.96404282    -0.13600
F1109       F  0.58350816  0.53706359  0.98052148    -0.15900
F1110       F  0.59615163  0.45172558  0.94575798    -0.14500
F1111       F  0.66601714  0.48510224  0.95852521    -0.14500
F1112       F  0.63364921  0.50638910  0.90663537    -0.15900
C1113       C  0.62053236  0.11036779  0.63674693     0.14200
C1114       C  0.62560702  0.13636178  0.63194719     0.01100
C1115       C  0.65168991  0.14345221  0.62798476     0.16100
C1116       C  0.67249491  0.12465417  0.62868243     0.25500
C1117       C  0.66745326  0.09834729  0.63325192    -0.40800
C1118       C  0.64123194  0.09143468  0.63735367     0.32600
C1119       C  0.60356900  0.15602809  0.63100095     0.01200
F1120       F  0.65702730  0.16871654  0.62358404    -0.13100
F1121       F  0.63527664  0.06611048  0.64144239    -0.13600
C1122       C  0.59216772  0.16672469  0.64269489     0.16100
C1123       C  0.57102955  0.18510157  0.64186225     0.25500
C1124       C  0.56073458  0.19302333  0.62923503    -0.40800
C1125       C  0.57248257  0.18222259  0.61750184     0.32500
C1126       C  0.59373008  0.16393754  0.61841396     0.14200
F1127       F  0.60183697  0.15962454  0.65494877    -0.13100
F1128       F  0.56360758  0.18934771  0.60510648    -0.13600
F1129       F  0.56092179  0.19523827  0.65347357    -0.15900
F1130       F  0.60455702  0.15366438  0.60699286    -0.14500
F1131       F  0.59531655  0.10315996  0.64051872    -0.14500
F1132       F  0.69766985  0.13239727  0.62514343    -0.15900
C1133       C  0.38675974  0.10530590  0.62886791     0.14200
C1134       C  0.37911090  0.13222910  0.62720835     0.01100
C1135       C  0.35201424  0.13845735  0.62490745     0.16100
C1136       C  0.33275095  0.11800254  0.62427412     0.25500
C1137       C  0.34034046  0.09087611  0.62582465    -0.40800
C1138       C  0.36758366  0.08477654  0.62816520     0.32600
C1139       C  0.39963667  0.15369085  0.62743239     0.01200
F1140       F  0.34420111  0.16441911  0.62339553    -0.13100
F1141       F  0.37587542  0.05890102  0.62931210    -0.13600
C1142       C  0.40754765  0.16607128  0.61542838     0.16100
C1143       C  0.42786201  0.18549408  0.61543519     0.25500
C1144       C  0.44063903  0.19309624  0.62753567    -0.40800
C1145       C  0.43217736  0.18085920  0.63962376     0.32500
C1146       C  0.41193575  0.16127988  0.63953095     0.14200
F1147       F  0.39588530  0.15892360  0.60362126    -0.13100
F1148       F  0.44367332  0.18746358  0.65154442    -0.13600
F1149       F  0.43489619  0.19681445  0.60353564    -0.15900
F1150       F  0.40425677  0.14970635  0.65127206    -0.14500
F1151       F  0.41298275  0.09888759  0.63082321    -0.14500
F1152       F  0.30660222  0.12488201  0.62249848    -0.15900
C1153       C  0.92515667  0.01696120  0.44940638     0.14200
C1154       C  0.90196210  0.00092511  0.45031804     0.01100
C1155       C  0.89805261  0.98492764  0.46181468     0.16100
C1156       C  0.91699799  0.98495807  0.47220449     0.25500
C1157       C  0.93987663  0.00139500  0.47139043    -0.40800
C1158       C  0.94377903  0.01744954  0.45993161     0.32600
C1159       C  0.88150048  0.00129216  0.43947811     0.01200
F1160       F  0.87548453  0.96982188  0.46314124    -0.13100
F1161       F  0.96602406  0.03309205  0.45878190    -0.13600
C1162       C  0.87335501  0.97725415  0.43329012     0.16100
C1163       C  0.85290573  0.97735425  0.42366305     0.25500
C1164       C  0.84034394  0.00156711  0.41992176    -0.40800
C1165       C  0.84903475  0.02574394  0.42585075     0.32500
C1166       C  0.86936144  0.02557876  0.43556824     0.14200
F1167       F  0.88547076  0.95364928  0.43645915    -0.13100
F1168       F  0.83718119  0.04945774  0.42265025    -0.13600
F1169       F  0.84591182  0.95377622  0.41776432    -0.15900
F1170       F  0.87657674  0.04908016  0.44149057    -0.14500
F1171       F  0.92999021  0.03181538  0.43822153    -0.14500
F1172       F  0.91250124  0.96968818  0.48328073    -0.15900
C1173       C  0.89964392  0.02215737  0.54196148     0.14200
C1174       C  0.90082615  0.00260702  0.55214016     0.01100
C1175       C  0.92174400  0.98365147  0.55197079     0.16100
C1176       C  0.94087972  0.98396128  0.54165909     0.25500
C1177       C  0.93958063  0.00341041  0.53138570    -0.40800
C1178       C  0.91891783  0.02266633  0.53172460     0.32600
C1179       C  0.87985644  0.00178905  0.56272452     0.01200
F1180       F  0.92385169  0.96507094  0.56190686    -0.13100
F1181       F  0.91679290  0.04142115  0.52188222    -0.13600
C1182       C  0.86359985  0.97890471  0.56431087     0.16100
C1183       C  0.84278713  0.97872249  0.57377074     0.25500
C1184       C  0.83791150  0.00141536  0.58185987    -0.40800
C1185       C  0.85446030  0.02417232  0.58037456     0.32500
C1186       C  0.87527083  0.02430002  0.57093051     0.14200
F1187       F  0.86735508  0.95699974  0.55639739    -0.13100
F1188       F  0.85100799  0.04609751  0.58830093    -0.13600
F1189       F  0.82678539  0.95669558  0.57464679    -0.15900
F1190       F  0.89123285  0.04633442  0.56990928    -0.14500
F1191       F  0.87930391  0.04032683  0.54173018    -0.14500
F1192       F  0.96105533  0.96559892  0.54189923    -0.15900
C1193       C  0.08397060  0.98301249  0.54728238     0.14200
C1194       C  0.09071805  0.00775866  0.55312892     0.01100
C1195       C  0.07891676  0.03136647  0.54822011     0.16100
C1196       C  0.06062808  0.03035165  0.53757840     0.25500
C1197       C  0.05377464  0.00555741  0.53156734    -0.40800
C1198       C  0.06574015  0.98186488  0.53658673     0.32600
C1199       C  0.11088605  0.00915409  0.56400679     0.01200
F1200       F  0.08497508  0.05547732  0.55385023    -0.13100
F1201       F  0.06008474  0.95752526  0.53111229    -0.13600
C1202       C  0.13544023  0.02218288  0.56176468     0.16100
C1203       C  0.15493151  0.02320930  0.57184660     0.25500
C1204       C  0.15007836  0.01157726  0.58455191    -0.40800
C1205       C  0.12506664  0.99889996  0.58681262     0.32500
C1206       C  0.10580543  0.99750630  0.57658113     0.14200
F1207       F  0.14084631  0.03333175  0.54961111    -0.13100
F1208       F  0.11885930  0.98824887  0.59897014    -0.13600
F1209       F  0.17887988  0.03474871  0.56886525    -0.15900
F1210       F  0.08197620  0.98512593  0.57901009    -0.14500
F1211       F  0.09554172  0.95998135  0.55175198    -0.14500
F1212       F  0.04956230  0.05375350  0.53328086    -0.15900
C1213       C  0.10789325  0.00623113  0.42683655     0.14200
C1214       C  0.11451984  0.99794056  0.43989412     0.01100
C1215       C  0.14046404  0.98809316  0.44243667     0.16100
C1216       C  0.15961921  0.98683863  0.43212268     0.25500
C1217       C  0.15311161  0.99519568  0.41895813    -0.40800
C1218       C  0.12685612  0.00471904  0.41646251     0.32600
C1219       C  0.09421641  0.99916558  0.45080937     0.01200
F1220       F  0.14741661  0.98017997  0.45502134    -0.13100
F1221       F  0.11910318  0.01186826  0.40389487    -0.13600
C1222       C  0.08463200  0.97544016  0.45671402     0.16100
C1223       C  0.06531044  0.97639670  0.46692560     0.25500
C1224       C  0.05515673  0.00125655  0.47155593    -0.40800
C1225       C  0.06492735  0.02507273  0.46556487     0.32500
C1226       C  0.08417418  0.02397104  0.45528508     0.14200
F1227       F  0.09366654  0.95119410  0.45239004    -0.13100
F1228       F  0.05588027  0.04952677  0.46957075    -0.13600
F1229       F  0.05655092  0.95281383  0.47219834    -0.15900
F1230       F  0.09328959  0.04721398  0.44978494    -0.14500
F1231       F  0.08275662  0.01525846  0.42405962    -0.14500
F1232       F  0.18472100  0.97817569  0.43519847    -0.15900
C1233       C  0.35760443  0.36670689  0.61932706     0.14200
C1234       C  0.38358367  0.37259893  0.62399323     0.01100
C1235       C  0.38934829  0.39865883  0.62863000     0.16100
C1236       C  0.36942133  0.41847546  0.62865424     0.25500
C1237       C  0.34345524  0.41264961  0.62388351    -0.40800
C1238       C  0.33773924  0.38655026  0.61923400     0.32600
C1239       C  0.40442507  0.35136797  0.62434544     0.01200
F1240       F  0.41445865  0.40504439  0.63291085    -0.13100
F1241       F  0.31265570  0.37993431  0.61501290    -0.13600
C1242       C  0.41177696  0.33762248  0.61257796     0.16100
C1243       C  0.43107535  0.31719769  0.61300577     0.25500
C1244       C  0.44354728  0.31018215  0.62524708    -0.40800
C1245       C  0.43608473  0.32414850  0.63701840     0.32500
C1246       C  0.41672137  0.34443872  0.63654764     0.14200
F1247       F  0.40044732  0.34419696  0.60061004    -0.13100
F1248       F  0.44749393  0.31832972  0.64906226    -0.13600
F1249       F  0.43728595  0.30420730  0.60141918    -0.15900
F1250       F  0.40956024  0.35701128  0.64811571    -0.14500
F1251       F  0.35127163  0.34149381  0.61517790    -0.14500
F1252       F  0.37579374  0.44356320  0.63295960    -0.15900
C1253       C  0.64949925  0.36216964  0.62012745     0.14200
C1254       C  0.62326657  0.36833915  0.62433819     0.01100
C1255       C  0.61709925  0.39483441  0.62805596     0.16100
C1256       C  0.63688944  0.41476540  0.62779564     0.25500
C1257       C  0.66342677  0.40857102  0.62391621    -0.40800
C1258       C  0.66941758  0.38206355  0.61992148     0.32600
C1259       C  0.60230113  0.34719335  0.62490648     0.01200
F1260       F  0.59169172  0.40152988  0.63173185    -0.13100
F1261       F  0.69472388  0.37507484  0.61624235    -0.13600
C1262       C  0.58955695  0.34103831  0.63711491     0.16100
C1263       C  0.56943151  0.32141677  0.63765539     0.25500
C1264       C  0.56147657  0.30758176  0.62592999    -0.40800
C1265       C  0.57470153  0.31358471  0.61373192     0.32500
C1266       C  0.59480214  0.33322215  0.61324820     0.14200
F1267       F  0.59683250  0.35389764  0.64858692    -0.13100
F1268       F  0.56837284  0.30042860  0.60220687    -0.13600
F1269       F  0.55770970  0.31617073  0.64968819    -0.15900
F1270       F  0.60660742  0.33900083  0.60129324    -0.14500
F1271       F  0.65600835  0.33665395  0.61656015    -0.14500
F1272       F  0.62975799  0.44029604  0.63098951    -0.15900
C1273       C  0.10094347  0.50635857  0.46211422     0.14200
C1274       C  0.10204180  0.48703757  0.45184225     0.01100
C1275       C  0.08149534  0.46769536  0.45094074     0.16100
C1276       C  0.05989756  0.46808766  0.46000466     0.25500
C1277       C  0.05840351  0.48800594  0.47002979    -0.40800
C1278       C  0.07931701  0.50694672  0.47105963     0.32600
C1279       C  0.12395970  0.48810942  0.44173809     0.01200
F1280       F  0.08196083  0.44891456  0.44104820    -0.13100
F1281       F  0.07927295  0.52561671  0.48101110    -0.13600
C1282       C  0.14155817  0.46631728  0.43990165     0.16100
C1283       C  0.16222233  0.46776910  0.43034782     0.25500
C1284       C  0.16575977  0.49113479  0.42256201    -0.40800
C1285       C  0.14821490  0.51294708  0.42449640     0.32500
C1286       C  0.12747587  0.51137998  0.43393439     0.14200
F1287       F  0.13911645  0.44389495  0.44757371    -0.13100
F1288       F  0.15049369  0.53550240  0.41691620    -0.13600
F1289       F  0.17924850  0.44663327  0.42898651    -0.15900
F1290       F  0.11038315  0.53247283  0.43527518    -0.14500
F1291       F  0.12107357  0.52455447  0.46356765    -0.14500
F1292       F  0.04010460  0.44947938  0.45873959    -0.15900
C1293       C  0.10738991  0.47616676  0.53303453     0.14200
C1294       C  0.10475886  0.49112310  0.54496550     0.01100
C1295       C  0.08045595  0.50444403  0.54765927     0.16100
C1296       C  0.05937121  0.50342909  0.53844975     0.25500
C1297       C  0.06199933  0.48857775  0.52654729    -0.40800
C1298       C  0.08602060  0.47477442  0.52390238     0.32600
C1299       C  0.12720721  0.49319090  0.55465128     0.01200
F1300       F  0.07707359  0.51824918  0.55930519    -0.13100
F1301       F  0.08915097  0.46098131  0.51223338    -0.13600
C1302       C  0.13723911  0.51854624  0.55833280     0.16100
C1303       C  0.15689651  0.52084874  0.56829040     0.25500
C1304       C  0.16709297  0.49779365  0.57465136    -0.40800
C1305       C  0.15752275  0.47233105  0.57070307     0.32500
C1306       C  0.13770090  0.47007680  0.56079919     0.14200
F1307       F  0.12800326  0.54111963  0.55221949    -0.13100
F1308       F  0.16646164  0.44965996  0.57682587    -0.13600
F1309       F  0.16634040  0.54561513  0.57150914    -0.15900
F1310       F  0.12801286  0.44538981  0.55757590    -0.14500
F1311       F  0.13087249  0.46362912  0.53005891    -0.14500
F1312       F  0.03617083  0.51667134  0.54122778    -0.15900
C1313       C  0.93270007  0.51115641  0.55245982     0.14200
C1314       C  0.90918651  0.49548369  0.55220954     0.01100
C1315       C  0.90494642  0.47772060  0.54140830     0.16100
C1316       C  0.92369639  0.47588330  0.53098050     0.25500
C1317       C  0.94674439  0.49216094  0.53102680    -0.40800
C1318       C  0.95122449  0.50966529  0.54189632     0.32600
C1319       C  0.88873364  0.49792986  0.56299913     0.01200
F1320       F  0.88216777  0.46275897  0.54073801    -0.13100
F1321       F  0.97383631  0.52490696  0.54241373    -0.13600
C1322       C  0.87657941  0.52283684  0.56578083     0.16100
C1323       C  0.85585213  0.52468986  0.57526587     0.25500
C1324       C  0.84681460  0.50160499  0.58209136    -0.40800
C1325       C  0.85962572  0.47688089  0.57958098     0.32500
C1326       C  0.88037182  0.47509302  0.57015831     0.14200
F1327       F  0.88401618  0.54519206  0.55890002    -0.13100
F1328       F  0.85239058  0.45440464  0.58640375    -0.13600
F1329       F  0.84382409  0.54883426  0.57727529    -0.15900
F1330       F  0.89239391  0.45097388  0.56803770    -0.14500
F1331       F  0.93785859  0.52766741  0.56301191    -0.14500
F1332       F  0.91876982  0.45900468  0.52054714    -0.15900
C1333       C  0.91164294  0.51766491  0.45560955     0.14200
C1334       C  0.89478529  0.49547198  0.45366059     0.01100
C1335       C  0.89843117  0.47230731  0.46147902     0.16100
C1336       C  0.91923842  0.47110772  0.47093893     0.25500
C1337       C  0.93684069  0.49309329  0.47264244    -0.40800
C1338       C  0.93246755  0.51655542  0.46499464     0.27800
C1339       C  0.87449881  0.49615899  0.44286933     0.01200
F1340       F  0.88183771  0.45086827  0.45991524    -0.13100
F1341       F  0.94883658  0.53823507  0.46624694    -0.13600
C1342       C  0.87920592  0.48226476  0.43085295     0.16100
C1343       C  0.86111711  0.48432933  0.42016609     0.25500
C1344       C  0.83766743  0.50003159  0.42139780    -0.40800
C1345       C  0.83303645  0.51392320  0.43354314     0.32500
C1346       C  0.85140525  0.51207520  0.44414713     0.14200
F1347       F  0.90181999  0.46730679  0.42934351    -0.13100
F1348       F  0.81049686  0.52882436  0.43534460    -0.13600
F1349       F  0.86714919  0.47170038  0.40846452    -0.15900
F1350       F  0.84661101  0.52571302  0.45571733    -0.14500
F1351       F  0.90843898  0.54016586  0.44806434    -0.14500
F1352       F  0.92195896  0.44853520  0.47847743    -0.15900
C1353       C  0.27378486  0.62004857  0.68355856     0.14200
C1354       C  0.25004401  0.63290412  0.68769465     0.01100
C1355       C  0.22552242  0.62518385  0.68179876     0.16100
C1356       C  0.22474880  0.60493088  0.67200714     0.25500
C1357       C  0.24853200  0.59202821  0.66785725    -0.40800
C1358       C  0.27306520  0.59988334  0.67375976     0.32600
C1359       C  0.25083838  0.65395500  0.69831923     0.01200
F1360       F  0.20228261  0.63747428  0.68544017    -0.13100
F1361       F  0.29658773  0.58852169  0.66985375    -0.13600
C1362       C  0.26734671  0.67676823  0.69690550     0.16100
C1363       C  0.26849779  0.69620675  0.70708532     0.25500
C1364       C  0.25279563  0.69343967  0.71875413    -0.40800
C1365       C  0.23609642  0.67081658  0.72010563     0.32500
C1366       C  0.23533720  0.65113720  0.71005663     0.14200
F1367       F  0.28200303  0.68047054  0.68554902    -0.13100
F1368       F  0.22118355  0.66729512  0.73139154    -0.13600
F1369       F  0.28437885  0.71813259  0.70536876    -0.15900
F1370       F  0.21998118  0.62891209  0.71195997    -0.14500
F1371       F  0.29773702  0.62671394  0.68918092    -0.14500
F1372       F  0.20060145  0.59748899  0.66687175    -0.15900
C1373       C  0.27434468  0.63021068  0.81881751     0.14200
C1374       C  0.26496125  0.62493804  0.80575964     0.01100
C1375       C  0.25577295  0.59895580  0.80262359     0.16100
C1376       C  0.25523463  0.57884853  0.81245718     0.25500
C1377       C  0.26413698  0.58423844  0.82561809    -0.40800
C1378       C  0.27408792  0.61006097  0.82862174     0.32600
C1379       C  0.26378173  0.64677968  0.79559644     0.01200
F1380       F  0.24748539  0.59298275  0.78997112    -0.13100
F1381       F  0.28249452  0.61627913  0.84121548    -0.13600
C1382       C  0.28686021  0.66168101  0.79229061     0.16100
C1383       C  0.28542691  0.68277689  0.78300678     0.25500
C1384       C  0.26083299  0.68936438  0.77677467    -0.40800
C1385       C  0.23782529  0.67413703  0.78000934     0.32500
C1386       C  0.23928977  0.65321404  0.78935057     0.14200
F1387       F  0.31092303  0.65562507  0.79796151    -0.13100
F1388       F  0.21382401  0.67920838  0.77403962    -0.13600
F1389       F  0.30811835  0.69691169  0.78027762    -0.15900
F1390       F  0.21653354  0.63954490  0.79250612    -0.14500
F1391       F  0.28281790  0.65522661  0.82224610    -0.14500
F1392       F  0.24649473  0.55395678  0.80899254    -0.15900
C1393       C  0.27814856  0.82379424  0.80000055     0.14200
C1394       C  0.26180822  0.84688160  0.79950894     0.01100
C1395       C  0.24398940  0.84998126  0.78859991     0.16100
C1396       C  0.24215643  0.83025780  0.77860325     0.25500
C1397       C  0.25884745  0.80751597  0.77898548    -0.40800
C1398       C  0.27698159  0.80454505  0.78972387     0.32600
C1399       C  0.26300105  0.86766645  0.81031409     0.01200
F1400       F  0.22873343  0.87248066  0.78743506    -0.13100
F1401       F  0.29299341  0.78251482  0.79048625    -0.13600
C1402       C  0.28765085  0.87905892  0.81437722     0.16100
C1403       C  0.28827509  0.89976121  0.82394827     0.25500
C1404       C  0.26423439  0.90992254  0.82939437    -0.40800
C1405       C  0.23975678  0.89787156  0.82569406     0.32500
C1406       C  0.23918047  0.87686053  0.81638723     0.14200
F1407       F  0.31108829  0.87094190  0.80870402    -0.13100
F1408       F  0.21627219  0.90600603  0.83130956    -0.13600
F1409       F  0.31232259  0.91060819  0.82743179    -0.15900
F1410       F  0.21519599  0.86532702  0.81338263    -0.14500
F1411       F  0.29477217  0.81948482  0.81059846    -0.14500
F1412       F  0.22467443  0.83385615  0.76828633    -0.15900
C1413       C  0.22513873  0.88239537  0.68521917     0.14200
C1414       C  0.24776609  0.86586783  0.68702684     0.01100
C1415       C  0.27018928  0.86937289  0.67859251     0.16100
C1416       C  0.27048039  0.88982038  0.66896803     0.25500
C1417       C  0.24811610  0.90674619  0.66738909    -0.40800
C1418       C  0.22522380  0.90249979  0.67541148     0.32600
C1419       C  0.24858607  0.84598972  0.69812836     0.01200
F1420       F  0.29183126  0.85290084  0.67965874    -0.13100
F1421       F  0.20335557  0.91862623  0.67421617    -0.13600
C1422       C  0.22815722  0.82668565  0.69963539     0.16100
C1423       C  0.22891502  0.80839028  0.71030951     0.25500
C1424       C  0.25043572  0.80870761  0.71950680    -0.40800
C1425       C  0.27088345  0.82796119  0.71793674     0.32500
C1426       C  0.26979809  0.84658157  0.70745830     0.14200
F1427       F  0.20781339  0.82508778  0.69057571    -0.13100
F1428       F  0.29174078  0.82914405  0.72671062    -0.13600
F1429       F  0.20908048  0.78976131  0.71134491    -0.15900
F1430       F  0.28930031  0.86558627  0.70657598    -0.14500
F1431       F  0.20334251  0.87984450  0.69332423    -0.14500
F1432       F  0.29245702  0.89274125  0.66102133    -0.15900
C1433       C  0.74529485  0.59912154  0.80391367     0.14200
C1434       C  0.73505653  0.62436341  0.80748627     0.01100
C1435       C  0.72511490  0.62844984  0.82050046     0.16100
C1436       C  0.72622773  0.60775825  0.83001428     0.25500
C1437       C  0.73729714  0.58253352  0.82661937    -0.40800
C1438       C  0.74636249  0.57834260  0.81336857     0.32600
C1439       C  0.73618854  0.64683609  0.79783271     0.01200
F1440       F  0.71507261  0.65277793  0.82409669    -0.13100
F1441       F  0.75600880  0.55405336  0.80948368    -0.13600
C1442       C  0.71373236  0.65348448  0.79002129     0.16100
C1443       C  0.71515172  0.67449993  0.78070173     0.25500
C1444       C  0.73914791  0.68930546  0.77906989    -0.40800
C1445       C  0.76163016  0.68245463  0.78699070     0.32500
C1446       C  0.76008277  0.66143962  0.79629003     0.14200
F1447       F  0.69054330  0.63933785  0.79129263    -0.13100
F1448       F  0.78509036  0.69620084  0.78586922    -0.13600
F1449       F  0.69320473  0.67983113  0.77304929    -0.15900
F1450       F  0.78194377  0.65531082  0.80385432    -0.14500
F1451       F  0.75449110  0.59472470  0.79126151    -0.14500
F1452       F  0.71760802  0.61293680  0.84268647    -0.15900
C1453       C  0.71650715  0.66333351  0.70523920     0.14200
C1454       C  0.74036946  0.65512992  0.69898278     0.01100
C1455       C  0.76497716  0.66561941  0.70342107     0.16100
C1456       C  0.76579183  0.68403032  0.71403337     0.25500
C1457       C  0.74185347  0.69248103  0.72037176    -0.40800
C1458       C  0.71716534  0.68187289  0.71578924     0.32600
C1459       C  0.73970192  0.63516459  0.68799974     0.01200
F1460       F  0.78831803  0.65765623  0.69758516    -0.13100
F1461       F  0.69352989  0.68928945  0.72149957    -0.13600
C1462       C  0.74779538  0.64230126  0.67497659     0.16100
C1463       C  0.74801271  0.62313270  0.66469398     0.25500
C1464       C  0.74030328  0.59638344  0.66729722    -0.40800
C1465       C  0.73193192  0.58942752  0.68038055     0.32500
C1466       C  0.73153096  0.60870006  0.69059943     0.14200
F1467       F  0.75520753  0.66796473  0.67219940    -0.13100
F1468       F  0.72516187  0.56375728  0.68349022    -0.13600
F1469       F  0.75524325  0.63095311  0.65214265    -0.15900
F1470       F  0.72392232  0.60134044  0.70317407    -0.14500
F1471       F  0.69247040  0.65357736  0.70100505    -0.14500
F1472       F  0.79007589  0.69361925  0.71799282    -0.15900
C1473       C  0.72583555  0.83138736  0.70261468     0.14200
C1474       C  0.74924097  0.84663440  0.70066759     0.01100
C1475       C  0.77160804  0.84219152  0.70897665     0.16100
C1476       C  0.77055490  0.82287131  0.71914868     0.25500
C1477       C  0.74707153  0.80756387  0.72116035    -0.40800
C1478       C  0.72473583  0.81201497  0.71274011     0.32600
C1479       C  0.75001374  0.86762899  0.69018417     0.01200
F1480       F  0.79458413  0.85646111  0.70716236    -0.13100
F1481       F  0.70186323  0.79740359  0.71415023    -0.13600
C1482       C  0.75495316  0.89450657  0.69372487     0.16100
C1483       C  0.75465401  0.91456952  0.68392902     0.25500
C1484       C  0.74955015  0.90803799  0.67043181    -0.40800
C1485       C  0.74500397  0.88112316  0.66684254     0.32500
C1486       C  0.74514088  0.86105550  0.67666263     0.14200
F1487       F  0.75947189  0.90140227  0.70673155    -0.13100
F1488       F  0.73951336  0.87439538  0.65390983    -0.13600
F1489       F  0.75978179  0.94034070  0.68760547    -0.15900
F1490       F  0.74054855  0.83518536  0.67298140    -0.14500
F1491       F  0.70380381  0.83561537  0.69484650    -0.14500
F1492       F  0.79238507  0.81954633  0.72716022    -0.15900
C1493       C  0.73517606  0.86971161  0.82088998     0.14200
C1494       C  0.74626442  0.87414655  0.80812548     0.01100
C1495       C  0.75802529  0.89911784  0.80520127     0.16100
C1496       C  0.75864726  0.91944427  0.81492502     0.25500
C1497       C  0.74749860  0.91507810  0.82774718    -0.40800
C1498       C  0.73580199  0.88994049  0.83062631     0.32600
C1499       C  0.74579284  0.85249381  0.79795759     0.01200
F1500       F  0.76842657  0.90396026  0.79282607    -0.13100
F1501       F  0.72566959  0.88457014  0.84299900    -0.13600
C1502       C  0.72128330  0.84330062  0.79273861     0.16100
C1503       C  0.72071735  0.82221630  0.78344525     0.25500
C1504       C  0.74478098  0.80970970  0.77924102    -0.40800
C1505       C  0.76937389  0.81924132  0.78449963     0.32500
C1506       C  0.76980564  0.84045014  0.79372566     0.14200
F1507       F  0.69784851  0.85500629  0.79655496    -0.13100
F1508       F  0.79313204  0.80808947  0.78079046    -0.13600
F1509       F  0.69652503  0.81426453  0.77854920    -0.15900
F1510       F  0.79371196  0.84893162  0.79875518    -0.14500
F1511       F  0.72421945  0.84551040  0.82400622    -0.14500
F1512       F  0.76938063  0.94363783  0.81163393    -0.15900
loop_ 
_geom_bond_atom_site_label_1 
_geom_bond_atom_site_label_2 
_geom_bond_distance 
_geom_bond_site_symmetry_2 
_ccdc_geom_bond_type 
O1           Cu9   2.013       .  S
O1           C11   1.279       .  A
O2           Cu9   2.006       .  S
O2           C12   1.278       .  A
O3           Cu9   2.011       .  S
O3           C13   1.278       .  A
O4           Cu9   2.011       .  S
O4           C14   1.278       .  A
O5          Cu10   2.004       .  S
O5           C14   1.277       .  A
O6          Cu10   2.009       .  S
O6           C13   1.278       .  A
O7          Cu10   1.999       .  S
O7           C12   1.277       .  A
O8          Cu10   2.006       .  S
O8           C11   1.277       .  A
Cu9         Cu10   2.366       .  S
C11        C1444   1.486       .  S
C12        C1477   1.480       .  S
C13        C1504   1.490       .  S
C14        C1457   1.488       .  S
O15         Cu23   2.023       .  S
O15          C25   1.279       .  A
O16         Cu23   2.014       .  S
O16          C26   1.278       .  A
O17         Cu23   2.008       .  S
O17          C27   1.278       .  A
O18         Cu23   2.008       .  S
O18          C28   1.278       .  A
O19         Cu24   2.007       .  S
O19          C28   1.278       .  A
O20         Cu24   2.010       .  S
O20          C27   1.278       .  A
O21         Cu24   2.016       .  S
O21          C26   1.278       .  A
O22         Cu24   2.016       .  S
O22          C25   1.278       .  A
Cu23        Cu24   2.369       .  S
C25        C1397   1.481       .  S
C26        C1364   1.480       .  S
C27        C1384   1.487       .  S
C28        C1424   1.479       .  S
O29         Cu37   2.004   1_655  S
O29          C39   1.278       .  A
O30         Cu37   1.988       .  S
O30          C40   1.275       .  A
O31         Cu37   2.011       .  S
O31          C41   1.279       .  A
O32         Cu37   2.005   1_655  S
O32          C42   1.277       .  A
O33         Cu38   2.016       .  S
O33          C42   1.279       .  A
O34         Cu38   2.015   1_455  S
O34          C41   1.278       .  A
O35         Cu38   2.016   1_455  S
O35          C40   1.278       .  A
O36         Cu38   2.014       .  S
O36          C39   1.279       .  A
Cu37        Cu38   2.373   1_455  S
C39        C1337   1.485       .  S
C40        C1297   1.466       .  S
C41        C1277   1.482       .  S
C42        C1317   1.475       .  S
N43          N44   1.320       .  A
N43          C47   1.347       .  A
N43         Cu51   2.077       .  S
N44          C45   1.343       .  A
N44         Cu50   2.068       .  S
C45          C46   1.386       .  A
C45          H48   1.081       .  S
C46        C1257   1.487       .  S
C46          C47   1.389       .  A
C47          H49   1.081       .  S
Cu50         N53   2.069       .  S
Cu51         N61   2.078       .  S
Cu52         N54   2.078       .  S
Cu52         N60   2.079       .  S
N53          N54   1.321       .  A
N53          C57   1.343       .  A
N54          C55   1.345       .  A
C55          C56   1.388       .  A
C55          H58   1.082       .  S
C56        C1464   1.485       .  S
C56          C57   1.386       .  A
C57          H59   1.081       .  S
N60          N61   1.323       .  A
N60          C64   1.347       .  A
N61          C62   1.343       .  A
C62          C63   1.385       .  A
C62          H65   1.082       .  S
C63        C1324   1.484       .  S
C63          C64   1.387       .  A
C64          H66   1.082       .  S
N67          N68   1.320       .  A
N67          C71   1.342       .  A
N67         Cu75   2.059       .  S
N68          C69   1.345       .  A
N68         Cu74   2.075       .  S
C69          C70   1.387       .  A
C69          H72   1.082       .  S
C70        C1237   1.479       .  S
C70          C71   1.383       .  A
C71          H73   1.082       .  S
Cu74         N77   2.076       .  S
Cu75         N85   2.060       .  S
Cu76         N78   2.091       .  S
Cu76         N84   2.090       .  S
N77          N78   1.323       .  A
N77          C81   1.344       .  A
N78          C79   1.349       .  A
C79          C80   1.390       .  A
C79          H82   1.082       .  S
C80        C1357   1.489       .  S
C80          C81   1.385       .  A
C81          H83   1.082       .  S
N84          N85   1.323       .  A
N84          C88   1.347       .  A
N85          C86   1.342       .  A
C86          C87   1.381       .  A
C86          H89   1.082       .  S
C87        C1304   1.480       .  S
C87          C88   1.388       .  A
C88          H90   1.082       .  S
O91         Cu99   2.010   1_455  S
O91         C101   1.278   1_565  A
O92         Cu99   2.003       .  S
O92         C102   1.277   1_565  A
O93         Cu99   2.018       .  S
O93         C103   1.279   1_565  A
O94         Cu99   2.013   1_455  S
O94         C104   1.279   1_565  A
O95        Cu100   2.004   1_455  S
O95         C104   1.277       .  A
O96        Cu100   2.002       .  S
O96         C103   1.276       .  A
O97        Cu100   2.024       .  S
O97         C102   1.280       .  A
O98        Cu100   2.022   1_455  S
O98         C101   1.280       .  A
Cu99       Cu100   2.368   1_565  S
C101       C1224   1.495       .  S
C102       C1177   1.482       .  S
C103       C1157   1.474       .  S
C104       C1197   1.489       .  S
N105        N106   1.322       .  A
N105        C109   1.342       .  A
N105       Cu113   2.060       .  S
N106        C107   1.346       .  A
N106       Cu112   2.080       .  S
C107        C108   1.387       .  A
C107        H110   1.082       .  S
C108       C1417   1.477       .  S
C108        C109   1.381       .  A
C109        H111   1.082       .  S
Cu112       N115   2.081   1_565  S
Cu113       N123   2.060       .  S
Cu114       N116   2.075       .  S
Cu114       N122   2.074       .  S
N115        N116   1.323       .  A
N115        C119   1.346       .  A
N116        C117   1.344       .  A
C117        C118   1.385       .  A
C117        H120   1.082       .  S
C118       C1137   1.485       .  S
C118        C119   1.387       .  A
C119        H121   1.082       .  S
N122        N123   1.319   1_545  A
N122        C126   1.344       .  A
N123        C124   1.343       .  A
C124        C125   1.388   1_565  A
C124        H127   1.081       .  S
C125       C1204   1.490       .  S
C125        C126   1.391       .  A
C126        H128   1.080       .  S
N129        N130   1.322       .  A
N129        C133   1.345       .  A
N129       Cu137   2.071       .  S
N130        C131   1.342       .  A
N130       Cu136   2.062   1_565  S
C131        C132   1.381       .  A
C131        H134   1.082       .  S
C132       C1484   1.471       .  S
C132        C133   1.383       .  A
C133        H135   1.082       .  S
Cu136       N139   2.062       .  S
Cu137       N147   2.072       .  S
Cu138       N140   2.073       .  S
Cu138       N146   2.074       .  S
N139        N140   1.321       .  A
N139        C143   1.343       .  A
N140        C141   1.343       .  A
C141        C142   1.386       .  A
C141        H144   1.082       .  S
C142       C1117   1.481       .  S
C142        C143   1.385       .  A
C143        H145   1.082       .  S
N146        N147   1.322   1_545  A
N146        C150   1.344       .  A
N147        C148   1.344       .  A
C148        C149   1.385   1_565  A
C148        H151   1.082       .  S
C149       C1184   1.482       .  S
C149        C150   1.386       .  A
C150        H152   1.082       .  S
O153       Cu161   2.000   1_554  S
O153        C163   1.277       .  A
O154       Cu161   2.012       .  S
O154        C164   1.278       .  A
O155       Cu161   2.007   1_554  S
O155        C165   1.278       .  A
O156       Cu161   2.008       .  S
O156        C166   1.278       .  A
O157       Cu162   2.017       .  S
O157        C166   1.279       .  A
O158       Cu162   2.020   1_554  S
O158        C165   1.279       .  A
O159       Cu162   2.022       .  S
O159        C164   1.280       .  A
O160       Cu162   2.019   1_554  S
O160        C163   1.279       .  A
Cu161      Cu162   2.365       .  S
C163       C1064   1.487       .  S
C164       C1084   1.495       .  S
C165       C1044   1.493       .  S
C166       C1104   1.485       .  S
N167        N168   1.324       .  A
N167        C171   1.344       .  A
N167       Cu175   2.079       .  S
N168        C169   1.348       .  A
N168       Cu174   2.087       .  S
C169        C170   1.386       .  A
C169        H172   1.082       .  S
C170       C1017   1.482       .  S
C170        C171   1.383       .  A
C171        H173   1.082       .  S
Cu174       N177   2.087       .  S
Cu175       N185   2.079       .  S
Cu176       N178   2.068       .  S
Cu176       N184   2.068       .  S
N177        N178   1.321       .  A
N177        C181   1.346       .  A
N178        C179   1.344       .  A
C179        C180   1.385       .  A
C179        H182   1.081       .  S
C180       C1437   1.487       .  S
C180        C181   1.390       .  A
C181        H183   1.082       .  S
N184        N185   1.320       .  A
N184        C188   1.343       .  A
N185        C186   1.347       .  A
C186        C187   1.390       .  A
C186        H189   1.082       .  S
C187       C1097   1.488       .  S
C187        C188   1.386       .  A
C188        H190   1.081       .  S
N191        N192   1.323       .  A
N191        C195   1.345       .  A
N191       Cu199   2.084       .  S
N192        C193   1.346       .  A
N192       Cu198   2.081       .  S
C193        C194   1.387       .  A
C193        H196   1.082       .  S
C194        C997   1.486       .  S
C194        C195   1.387       .  A
C195        H197   1.082       .  S
Cu198       N201   2.080       .  S
Cu199       N209   2.084       .  S
Cu200       N202   2.072       .  S
Cu200       N208   2.072       .  S
N201        N202   1.321       .  A
N201        C205   1.346       .  A
N202        C203   1.344       .  A
C203        C204   1.386       .  A
C203        H206   1.082       .  S
C204       C1377   1.486       .  S
C204        C205   1.388       .  A
C205        H207   1.082       .  S
N208        N209   1.321       .  A
N208        C212   1.344       .  A
N209        C210   1.348       .  A
C210        C211   1.390       .  A
C210        H213   1.082       .  S
C211       C1077   1.488       .  S
C211        C212   1.386       .  A
C212        H214   1.082       .  S
O215       Cu223   2.006       .  S
O215        C225   1.278       .  A
O216       Cu223   2.004       .  S
O216        C226   1.277       .  A
O217       Cu223   2.009       .  S
O217        C227   1.279       .  A
O218       Cu223   2.010       .  S
O218        C228   1.278       .  A
O219       Cu224   1.998       .  S
O219        C228   1.277       .  A
O220       Cu224   2.000       .  S
O220        C227   1.276       .  A
O221       Cu224   2.016       .  S
O221        C226   1.280       .  A
O222       Cu224   2.014       .  S
O222        C225   1.279       .  A
Cu223      Cu224   2.368       .  S
C225        C957   1.489       .  S
C226        C937   1.487       .  S
C227        C977   1.486       .  S
C228        C917   1.474       .  S
O229       Cu237   2.005       .  S
O229        C239   1.277       .  A
O230       Cu237   2.010   1_554  S
O230        C240   1.278       .  A
O231       Cu237   2.008       .  S
O231        C241   1.278       .  A
O232       Cu237   2.011   1_554  S
O232        C242   1.278       .  A
O233       Cu238   2.008   1_554  S
O233        C242   1.278   1_565  A
O234       Cu238   2.015       .  S
O234        C241   1.278   1_565  A
O235       Cu238   2.010   1_554  S
O235        C240   1.278   1_565  A
O236       Cu238   2.002       .  S
O236        C239   1.277   1_565  A
Cu237      Cu238   2.367   1_545  S
C239        C897   1.474       .  S
C240        C837   1.491   1_545  S
C241        C877   1.487   1_545  S
C242        C857   1.490       .  S
N243        N244   1.322       .  A
N243        C247   1.342       .  A
N243       Cu251   2.065       .  S
N244        C245   1.345       .  A
N244       Cu250   2.075       .  S
C245        C246   1.386       .  A
C245        H248   1.082       .  S
C246        C824   1.479       .  S
C246        C247   1.383       .  A
C247        H249   1.082       .  S
Cu250       N253   2.075   1_545  S
Cu251       N261   2.065       .  S
Cu252       N254   2.070       .  S
Cu252       N260   2.069       .  S
N253        N254   1.321       .  A
N253        C257   1.343       .  A
N254        C255   1.347       .  A
C255        C256   1.386       .  A
C255        H258   1.082       .  S
C256       C1404   1.484       .  S
C256        C257   1.386       .  A
C257        H259   1.082       .  S
N260        N261   1.321   1_565  A
N260        C264   1.341       .  A
N261        C262   1.345       .  A
C262        C263   1.386       .  A
C262        H265   1.082       .  S
C263        C904   1.482       .  S
C263        C264   1.385   1_545  A
C264        H266   1.081       .  S
N267        N268   1.322       .  A
N267        C271   1.343       .  A
N267       Cu275   2.067       .  S
N268        C269   1.346       .  A
N268       Cu274   2.081       .  S
C269        C270   1.389       .  A
C269        H272   1.082       .  S
C270        C797   1.485       .  S
C270        C271   1.385       .  A
C271        H273   1.081       .  S
Cu274       N277   2.082   1_545  S
Cu275       N285   2.067       .  S
Cu276       N278   2.067       .  S
Cu276       N284   2.067       .  S
N277        N278   1.322       .  A
N277        C281   1.346       .  A
N278        C279   1.342       .  A
C279        C280   1.384       .  A
C279        H282   1.082       .  S
C280       C1497   1.483       .  S
C280        C281   1.388       .  A
C281        H283   1.082       .  S
N284        N285   1.321   1_565  A
N284        C288   1.345       .  A
N285        C286   1.343       .  A
C286        C287   1.384       .  A
C286        H289   1.082       .  S
C287        C884   1.477       .  S
C287        C288   1.384   1_545  A
C288        H290   1.082       .  S
O291       Cu299   2.016       .  S
O291        C301   1.279       .  A
O292       Cu299   2.012       .  S
O292        C302   1.279       .  A
O293       Cu299   1.996       .  S
O293        C303   1.276       .  A
O294       Cu299   1.999       .  S
O294        C304   1.277       .  A
O295       Cu300   2.012       .  S
O295        C304   1.278       .  A
O296       Cu300   2.008       .  S
O296        C303   1.278       .  A
O297       Cu300   2.023       .  S
O297        C302   1.280       .  A
O298       Cu300   2.011       .  S
O298        C301   1.278       .  A
Cu299      Cu300   2.368       .  S
C301        C724   1.492       .  S
C302        C777   1.496       .  S
C303        C744   1.473       .  S
C304        C764   1.477       .  S
N305        N306   1.323       .  A
N305        C309   1.347       .  A
N305       Cu313   2.084       .  S
N306        C307   1.345       .  A
N306       Cu312   2.071   1_565  S
C307        C308   1.382       .  A
C307        H310   1.082       .  S
C308        C697   1.477       .  S
C308        C309   1.385       .  A
C309        H311   1.082       .  S
Cu312       N315   2.071       .  S
Cu313       N323   2.084       .  S
Cu314       N316   2.071       .  S
Cu314       N322   2.072       .  S
N315        N316   1.321       .  A
N315        C319   1.344       .  A
N316        C317   1.344       .  A
C317        C318   1.385       .  A
C317        H320   1.082       .  S
C318        C737   1.480       .  S
C318        C319   1.385       .  A
C319        H321   1.082       .  S
N322        N323   1.322   1_545  A
N322        C326   1.345       .  A
N323        C324   1.345       .  A
C324        C325   1.389   1_565  A
C324        H327   1.082       .  S
C325        C864   1.489       .  S
C325        C326   1.387       .  A
C326        H328   1.082       .  S
N329        N330   1.322       .  A
N329        C333   1.343       .  A
N329       Cu337   2.072   1_545  S
N330        C331   1.346       .  A
N330       Cu336   2.076       .  S
C331        C332   1.387       .  A
C331        H334   1.082       .  S
C332        C944   1.483       .  S
C332        C333   1.385       .  A
C333        H335   1.082       .  S
Cu336       N339   2.076       .  S
Cu337       N347   2.071       .  S
Cu338       N340   2.076       .  S
Cu338       N346   2.076       .  S
N339        N340   1.322   1_545  A
N339        C343   1.344       .  A
N340        C341   1.346       .  A
C341        C342   1.387       .  A
C341        H344   1.082       .  S
C342        C844   1.486       .  S
C342        C343   1.387   1_565  A
C343        H345   1.082       .  S
N346        N347   1.322       .  A
N346        C350   1.344       .  A
N347        C348   1.346       .  A
C348        C349   1.384       .  A
C348        H351   1.082       .  S
C349        C684   1.479       .  S
C349        C350   1.385       .  A
C350        H352   1.082       .  S
N353        N354   1.322       .  A
N353        C357   1.345       .  A
N353       Cu361   2.071       .  S
N354        C355   1.343       .  A
N354       Cu360   2.071       .  S
C355        C356   1.384       .  A
C355        H358   1.082       .  S
C356        C924   1.478       .  S
C356        C357   1.384       .  A
C357        H359   1.082       .  S
Cu360       N363   2.071       .  S
Cu361       N371   2.071       .  S
Cu362       N364   2.073       .  S
Cu362       N370   2.073       .  S
N363        N364   1.321       .  A
N363        C367   1.344       .  A
N364        C365   1.345       .  A
C365        C366   1.386       .  A
C365        H368   1.082       .  S
C366       C1057   1.482       .  S
C366        C367   1.385       .  A
C367        H369   1.082       .  S
N370        N371   1.322       .  A
N370        C374   1.344       .  A
N371        C372   1.344       .  A
C372        C373   1.385       .  A
C372        H375   1.082       .  S
C373        C657   1.481       .  S
C373        C374   1.385       .  A
C374        H376   1.082       .  S
N377        N378   1.323       .  A
N377        C381   1.347       .  A
N377       Cu385   2.084       .  S
N378        C379   1.343       .  A
N378       Cu384   2.067       .  S
C379        C380   1.382       .  A
C379        H382   1.082       .  S
C380        C637   1.478       .  S
C380        C381   1.386       .  A
C381        H383   1.082       .  S
Cu384       N387   2.067       .  S
Cu385       N395   2.084       .  S
Cu386       N388   2.067       .  S
Cu386       N394   2.068       .  S
N387        N388   1.320       .  A
N387        C391   1.344       .  A
N388        C389   1.344       .  A
C389        C390   1.386       .  A
C389        H392   1.082       .  S
C390        C717   1.482       .  S
C390        C391   1.386       .  A
C391        H393   1.082       .  S
N394        N395   1.322       .  A
N394        C398   1.343       .  A
N395        C396   1.347       .  A
C396        C397   1.387       .  A
C396        H399   1.082       .  S
C397       C1037   1.481       .  S
C397        C398   1.383       .  A
C398        H400   1.082       .  S
N401        N402   1.321   1_545  A
N401        C405   1.345       .  A
N401       Cu409   2.085       .  S
N402        C403   1.347       .  A
N402       Cu408   2.082       .  S
C403        C404   1.391       .  A
C403        H406   1.081       .  S
C404       C1217   1.495       .  S
C404        C405   1.390   1_565  A
C405        H407   1.081       .  S
Cu408       N411   2.082       .  S
Cu409       N419   2.085       .  S
Cu410       N412   2.077       .  S
Cu410       N418   2.078   1_565  S
N411        N412   1.323       .  A
N411        C415   1.345       .  A
N412        C413   1.346       .  A
C413        C414   1.386       .  A
C413        H416   1.082       .  S
C414        C624   1.485       .  S
C414        C415   1.387       .  A
C415        H417   1.082       .  S
N418        N419   1.322       .  A
N418        C422   1.346       .  A
N419        C420   1.346       .  A
C420        C421   1.390       .  A
C420        H423   1.082       .  S
C421        C784   1.491       .  S
C421        C422   1.388       .  A
C422        H424   1.082       .  S
N425        N426   1.322       .  A
N425        C429   1.344       .  A
N425       Cu433   2.071       .  S
N426        C427   1.345       .  A
N426       Cu432   2.078       .  S
C427        C428   1.387       .  A
C427        H430   1.082       .  S
C428        C604   1.483       .  S
C428        C429   1.385       .  A
C429        H431   1.082       .  S
Cu432       N435   2.078   1_565  S
Cu433       N443   2.071       .  S
Cu434       N436   2.067       .  S
Cu434       N442   2.067       .  S
N435        N436   1.322       .  A
N435        C439   1.346       .  A
N436        C437   1.342       .  A
C437        C438   1.383       .  A
C437        H440   1.082       .  S
C438        C984   1.481       .  S
C438        C439   1.387       .  A
C439        H441   1.082       .  S
N442        N443   1.321   1_545  A
N442        C446   1.345       .  A
N443        C444   1.343       .  A
C444        C445   1.386   1_565  A
C444        H447   1.082       .  S
C445       C1164   1.482       .  S
C445        C446   1.385       .  A
C446        H448   1.082       .  S
N449        N450   1.322       .  A
N449        C453   1.344       .  A
N449       Cu457   2.069       .  S
N450        C451   1.344       .  A
N450       Cu456   2.075       .  S
C451        C452   1.386       .  A
C451        H454   1.082       .  S
C452        C577   1.481       .  S
C452        C453   1.385       .  A
C453        H455   1.082       .  S
Cu456       N459   2.075       .  S
Cu457       N467   2.069       .  S
Cu458       N460   2.073       .  S
Cu458       N466   2.073       .  S
N459        N460   1.321       .  A
N459        C463   1.344       .  A
N460        C461   1.345       .  A
C461        C462   1.386       .  A
C461        H464   1.082       .  S
C462        C964   1.484       .  S
C462        C463   1.387       .  A
C463        H465   1.082       .  S
N466        N467   1.321       .  A
N466        C470   1.343       .  A
N467        C468   1.344       .  A
C468        C469   1.387       .  A
C468        H471   1.081       .  S
C469       C1344   1.485       .  S
C469        C470   1.387       .  A
C470        H472   1.081       .  S
N473        N474   1.322       .  A
N473        C477   1.343       .  A
N473       Cu481   2.064       .  S
N474        C475   1.346       .  A
N474       Cu480   2.080       .  S
C475        C476   1.386       .  A
C475        H478   1.082       .  S
C476        C557   1.478       .  S
C476        C477   1.382       .  A
C477        H479   1.082       .  S
Cu480       N483   2.081       .  S
Cu481       N491   2.064       .  S
Cu482       N484   2.074       .  S
Cu482       N490   2.074       .  S
N483        N484   1.322       .  A
N483        C487   1.345       .  A
N484        C485   1.345       .  A
C485        C486   1.385       .  A
C485        H488   1.082       .  S
C486       C1284   1.483       .  S
C486        C487   1.387       .  A
C487        H489   1.082       .  S
N490        N491   1.321       .  A
N490        C494   1.343       .  A
N491        C492   1.344       .  A
C492        C493   1.386       .  A
C492        H495   1.082       .  S
C493        C757   1.483       .  S
C493        C494   1.387       .  A
C494        H496   1.081       .  S
O497       Cu505   1.995       .  S
O497        C507   1.276       .  A
O498       Cu505   1.994   1_655  S
O498        C508   1.276       .  A
O499       Cu505   2.015   1_655  S
O499        C509   1.279       .  A
O500       Cu505   2.018       .  S
O500        C510   1.280       .  A
O501       Cu506   2.006       .  S
O501        C510   1.277       .  A
O502       Cu506   1.997   1_655  S
O502        C509   1.276       .  A
O503       Cu506   2.027   1_655  S
O503        C508   1.281       .  A
O504       Cu506   2.021       .  S
O504        C507   1.280       .  A
Cu505      Cu506   2.368       .  S
C507        C704   1.484       .  S
C508        C664   1.491       .  S
C509        C677   1.477       .  S
C510        C644   1.487       .  S
O511       Cu519   2.008       .  S
O511        C521   1.278       .  A
O512       Cu519   2.010       .  S
O512        C522   1.278       .  A
O513       Cu519   1.996       .  S
O513        C523   1.276       .  A
O514       Cu519   1.999       .  S
O514        C524   1.277       .  A
O515       Cu520   2.016       .  S
O515        C524   1.279       .  A
O516       Cu520   2.018       .  S
O516        C523   1.279       .  A
O517       Cu520   2.007       .  S
O517        C522   1.277       .  A
O518       Cu520   2.003       .  S
O518        C521   1.277       .  A
Cu519      Cu520   2.366       .  S
C521        C617   1.488       .  S
C522        C584   1.485       .  S
C523        C564   1.487       .  S
C524        C597   1.488       .  S
O525       Cu533   1.998       .  S
O525        C535   1.277       .  A
O526       Cu533   2.000       .  S
O526        C536   1.277       .  A
O527       Cu533   2.020       .  S
O527        C537   1.279       .  A
O528       Cu533   2.017       .  S
O528        C538   1.279       .  A
O529       Cu534   2.005       .  S
O529        C538   1.277       .  A
O530       Cu534   2.007       .  S
O530        C537   1.278       .  A
O531       Cu534   2.012       .  S
O531        C536   1.279       .  A
O532       Cu534   2.011       .  S
O532        C535   1.278       .  A
Cu533      Cu534   2.364       .  S
C535       C1124   1.487       .  S
C536       C1244   1.487       .  S
C537       C1144   1.491       .  S
C538       C1264   1.490       .  S
O539       Cu547   2.001   1_655  S
O539        C549   1.277       .  A
O540       Cu547   2.000       .  S
O540        C550   1.277       .  A
O541       Cu547   2.000   1_655  S
O541        C551   1.277       .  A
O542       Cu547   2.001       .  S
O542        C552   1.277       .  A
O543       Cu548   2.014       .  S
O543        C552   1.279       .  A
O544       Cu548   2.013   1_655  S
O544        C551   1.279       .  A
O545       Cu548   2.015       .  S
O545        C550   1.279       .  A
O546       Cu548   2.015   1_655  S
O546        C549   1.279       .  A
Cu547      Cu548   2.369       .  S
C549       C1024   1.478       .  S
C550        C817   1.476       .  S
C551        C804   1.486       .  S
C552       C1004   1.489       .  S
C553        C554   1.405       .  A
C553        C558   1.400       .  A
C553        F571   1.358       .  S
C554        C559   1.479       .  S
C554        C555   1.404       .  A
C555        C556   1.396       .  A
C555        F560   1.358       .  S
C556        C557   1.407       .  A
C556        F572   1.358       .  S
C557        C558   1.407       .  A
C558        F561   1.358       .  S
C559        C562   1.404       .  A
C559        C566   1.402       .  A
C562        C563   1.400       .  A
C562        F567   1.358       .  S
C563        C564   1.411       .  A
C563        F569   1.358       .  S
C564        C565   1.412       .  A
C565        C566   1.396       .  A
C565        F568   1.358       .  S
C566        F570   1.358       .  S
C573        C574   1.404       .  A
C573        C578   1.398       .  A
C573        F591   1.358       .  S
C574        C579   1.480       .  S
C574        C575   1.404       .  A
C575        C576   1.399       .  A
C575        F580   1.358       .  S
C576        C577   1.409       .  A
C576        F592   1.357       .  S
C577        C578   1.408       .  A
C578        F581   1.357       .  S
C579        C582   1.404       .  A
C579        C586   1.404       .  A
C582        C583   1.400       .  A
C582        F587   1.358       .  S
C583        C584   1.411       .  A
C583        F589   1.358       .  S
C584        C585   1.410       .  A
C585        C586   1.397       .  A
C585        F588   1.358       .  S
C586        F590   1.358       .  S
C593        C594   1.402       .  A
C593        C598   1.397       .  A
C593        F611   1.358       .  S
C594        C599   1.479       .  S
C594        C595   1.403       .  A
C595        C596   1.400       .  A
C595        F600   1.358       .  S
C596        C597   1.412       .  A
C596        F612   1.358       .  S
C597        C598   1.413       .  A
C598        F601   1.358       .  S
C599        C602   1.404       .  A
C599        C606   1.404       .  A
C602        C603   1.398       .  A
C602        F607   1.358       .  S
C603        C604   1.409       .  A
C603        F609   1.357       .  S
C604        C605   1.409       .  A
C605        C606   1.400       .  A
C605        F608   1.357       .  S
C606        F610   1.358       .  S
C613        C614   1.401       .  A
C613        C618   1.397       .  A
C613        F631   1.358       .  S
C614        C619   1.475       .  S
C614        C615   1.402       .  A
C615        C616   1.400       .  A
C615        F620   1.358       .  S
C616        C617   1.413       .  A
C616        F632   1.358       .  S
C617        C618   1.413       .  A
C618        F621   1.358       .  S
C619        C622   1.403       .  A
C619        C626   1.401       .  A
C622        C623   1.401       .  A
C622        F627   1.358       .  S
C623        C624   1.410       .  A
C623        F629   1.357       .  S
C624        C625   1.409       .  A
C625        C626   1.397       .  A
C625        F628   1.357       .  S
C626        F630   1.358       .  S
C633        C634   1.406       .  A
C633        C638   1.401       .  A
C633        F651   1.358       .  S
C634        C639   1.480       .  S
C634        C635   1.404       .  A
C635        C636   1.397       .  A
C635        F640   1.358       .  S
C636        C637   1.407       .  A
C636        F652   1.358       .  S
C637        C638   1.407       .  A
C638        F641   1.358       .  S
C639        C642   1.403       .  A
C639        C646   1.403       .  A
C642        C643   1.400       .  A
C642        F647   1.358       .  S
C643        C644   1.411       .  A
C643        F649   1.357       .  S
C644        C645   1.412       .  A
C645        C646   1.399       .  A
C645        F648   1.358       .  S
C646        F650   1.358       .  S
C653        C654   1.403       .  A
C653        C658   1.399       .  A
C653        F671   1.358       .  S
C654        C659   1.476       .  S
C654        C655   1.403       .  A
C655        C656   1.399       .  A
C655        F660   1.358       .  S
C656        C657   1.409       .  A
C656        F672   1.357       .  S
C657        C658   1.408       .  A
C658        F661   1.357       .  S
C659        C662   1.400       .  A
C659        C666   1.403       .  A
C662        C663   1.397       .  A
C662        F667   1.358       .  S
C663        C664   1.415       .  A
C663        F669   1.358       .  S
C664        C665   1.412       .  A
C665        C666   1.401       .  A
C665        F668   1.357       .  S
C666        F670   1.358       .  S
C673        C674   1.407       .  A
C673        C678   1.399       .  A
C673        F691   1.358       .  S
C674        C679   1.487       .  S
C674        C675   1.409       .  A
C675        C676   1.398       .  A
C675        F680   1.358       .  S
C676        C677   1.405       .  A
C676        F692   1.358       .  S
C677        C678   1.408       .  A
C678        F681   1.358       .  S
C679        C682   1.407       .  A
C679        C686   1.408       .  A
C682        C683   1.397       .  A
C682        F687   1.358       .  S
C683        C684   1.406       .  A
C683        F689   1.358       .  S
C684        C685   1.406       .  A
C685        C686   1.400       .  A
C685        F688   1.358       .  S
C686        F690   1.358       .  S
C693        C694   1.404       .  A
C693        C698   1.402       .  A
C693        F711   1.358       .  S
C694        C699   1.477       .  S
C694        C695   1.404       .  A
C695        C696   1.398       .  A
C695        F700   1.358       .  S
C696        C697   1.405       .  A
C696        F712   1.357       .  S
C697        C698   1.407       .  A
C698        F701   1.358       .  S
C699        C702   1.402       .  A
C699        C706   1.404       .  A
C702        C703   1.397       .  A
C702        F707   1.358       .  S
C703        C704   1.411       .  A
C703        F709   1.358       .  S
C704        C705   1.410       .  A
C705        C706   1.401       .  A
C705        F708   1.358       .  S
C706        F710   1.358       .  S
C713        C714   1.405       .  A
C713        C718   1.400       .  A
C713        F731   1.358       .  S
C714        C719   1.480       .  S
C714        C715   1.404       .  A
C715        C716   1.398       .  A
C715        F720   1.358       .  S
C716        C717   1.408       .  A
C716        F732   1.357       .  S
C717        C718   1.409       .  A
C718        F721   1.357       .  S
C719        C722   1.403       .  A
C719        C726   1.403       .  A
C722        C723   1.400       .  A
C722        F727   1.358       .  S
C723        C724   1.413       .  A
C723        F729   1.357       .  S
C724        C725   1.413       .  A
C725        C726   1.399       .  A
C725        F728   1.358       .  S
C726        F730   1.358       .  S
C733        C734   1.403       .  A
C733        C738   1.399       .  A
C733        F751   1.358       .  S
C734        C739   1.474       .  S
C734        C735   1.402       .  A
C735        C736   1.397       .  A
C735        F740   1.358       .  S
C736        C737   1.408       .  A
C736        F752   1.357       .  S
C737        C738   1.409       .  A
C738        F741   1.358       .  S
C739        C742   1.403       .  A
C739        C746   1.404       .  A
C742        C743   1.397       .  A
C742        F747   1.358       .  S
C743        C744   1.407       .  A
C743        F749   1.358       .  S
C744        C745   1.407       .  A
C745        C746   1.397       .  A
C745        F748   1.358       .  S
C746        F750   1.358       .  S
C753        C754   1.405       .  A
C753        C758   1.398       .  A
C753        F771   1.358       .  S
C754        C759   1.481       .  S
C754        C755   1.404       .  A
C755        C756   1.397       .  A
C755        F760   1.358       .  S
C756        C757   1.409       .  A
C756        F772   1.357       .  S
C757        C758   1.409       .  A
C758        F761   1.357       .  S
C759        C762   1.405       .  A
C759        C766   1.406       .  A
C762        C763   1.396       .  A
C762        F767   1.358       .  S
C763        C764   1.408       .  A
C763        F769   1.358       .  S
C764        C765   1.407       .  A
C765        C766   1.399       .  A
C765        F768   1.358       .  S
C766        F770   1.358       .  S
C773        C774   1.406       .  A
C773        C778   1.403       .  A
C773        F791   1.358       .  S
C774        C779   1.491       .  S
C774        C775   1.405       .  A
C775        C776   1.400       .  A
C775        F780   1.358       .  S
C776        C777   1.413       .  A
C776        F792   1.358       .  S
C777        C778   1.413       .  A
C778        F781   1.358       .  S
C779        C782   1.407       .  A
C779        C786   1.406       .  A
C782        C783   1.401       .  A
C782        F787   1.358       .  S
C783        C784   1.410       .  A
C783        F789   1.357       .  S
C784        C785   1.410       .  A
C785        C786   1.402       .  A
C785        F788   1.357       .  S
C786        F790   1.358       .  S
C793        C794   1.405       .  A
C793        C798   1.398       .  A
C793        F811   1.358       .  S
C794        C799   1.481       .  S
C794        C795   1.404       .  A
C795        C796   1.399       .  A
C795        F800   1.358       .  S
C796        C797   1.411       .  A
C796        F812   1.357       .  S
C797        C798   1.408       .  A
C798        F801   1.357       .  S
C799        C802   1.403       .  A
C799        C806   1.405       .  A
C802        C803   1.396       .  A
C802        F807   1.358       .  S
C803        C804   1.411       .  A
C803        F809   1.358       .  S
C804        C805   1.412       .  A
C805        C806   1.400       .  A
C805        F808   1.358       .  S
C806        F810   1.358       .  S
C813        C814   1.404       .  A
C813        C818   1.397       .  A
C813        F831   1.358       .  S
C814        C819   1.480       .  S
C814        C815   1.406       .  A
C815        C816   1.399       .  A
C815        F820   1.358       .  S
C816        C817   1.407       .  A
C816        F832   1.358       .  S
C817        C818   1.407       .  A
C818        F821   1.358       .  S
C819        C822   1.406       .  A
C819        C826   1.404       .  A
C822        C823   1.399       .  A
C822        F827   1.358       .  S
C823        C824   1.408       .  A
C823        F829   1.357       .  S
C824        C825   1.408       .  A
C825        C826   1.397       .  A
C825        F828   1.358       .  S
C826        F830   1.358       .  S
C833        C834   1.402       .  A
C833        C838   1.399       .  A
C833        F851   1.358       .  S
C834        C839   1.481       .  S
C834        C835   1.403   1_565  A
C835        C836   1.399       .  A
C835        F840   1.358       .  S
C836        C837   1.413   1_545  A
C836        F852   1.358       .  S
C837        C838   1.413       .  A
C838        F841   1.358       .  S
C839        C842   1.405       .  A
C839        C846   1.403   1_565  A
C842        C843   1.401       .  A
C842        F847   1.358       .  S
C843        C844   1.410       .  A
C843        F849   1.357       .  S
C844        C845   1.410   1_565  A
C845        C846   1.398       .  A
C845        F848   1.357       .  S
C846        F850   1.358       .  S
C853        C854   1.405   1_565  A
C853        C858   1.399       .  A
C853        F871   1.358       .  S
C854        C859   1.487       .  S
C854        C855   1.405       .  A
C855        C856   1.400       .  A
C855        F860   1.358       .  S
C856        C857   1.412       .  A
C856        F872   1.358       .  S
C857        C858   1.412   1_545  A
C858        F861   1.358       .  S
C859        C862   1.406       .  A
C859        C866   1.406   1_545  A
C862        C863   1.400       .  A
C862        F867   1.358       .  S
C863        C864   1.410       .  A
C863        F869   1.357       .  S
C864        C865   1.410   1_545  A
C865        C866   1.400       .  A
C865        F868   1.357       .  S
C866        F870   1.358       .  S
C873        C874   1.405       .  A
C873        C878   1.401       .  A
C873        F891   1.358       .  S
C874        C879   1.482   1_565  S
C874        C875   1.404   1_565  A
C875        C876   1.397       .  A
C875        F880   1.358       .  S
C876        C877   1.410   1_545  A
C876        F892   1.358       .  S
C877        C878   1.412       .  A
C878        F881   1.358       .  S
C879        C882   1.406   1_545  A
C879        C886   1.405       .  A
C882        C883   1.400       .  A
C882        F887   1.358       .  S
C883        C884   1.407   1_565  A
C883        F889   1.358       .  S
C884        C885   1.407       .  A
C885        C886   1.397       .  A
C885        F888   1.358       .  S
C886        F890   1.358       .  S
C893        C894   1.404       .  A
C893        C898   1.399       .  A
C893        F911   1.358       .  S
C894        C899   1.476       .  S
C894        C895   1.404   1_545  A
C895        C896   1.395       .  A
C895        F900   1.358       .  S
C896        C897   1.407   1_565  A
C896        F912   1.358       .  S
C897        C898   1.407       .  A
C898        F901   1.358       .  S
C899        C902   1.402   1_545  A
C899        C906   1.404       .  A
C902        C903   1.394       .  A
C902        F907   1.358       .  S
C903        C904   1.409   1_565  A
C903        F909   1.357       .  S
C904        C905   1.410       .  A
C905        C906   1.400       .  A
C905        F908   1.357       .  S
C906        F910   1.358       .  S
C913        C914   1.407       .  A
C913        C918   1.399       .  A
C913        F931   1.358       .  S
C914        C919   1.482       .  S
C914        C915   1.405       .  A
C915        C916   1.396       .  A
C915        F920   1.358       .  S
C916        C917   1.406       .  A
C916        F932   1.358       .  S
C917        C918   1.406       .  A
C918        F921   1.358       .  S
C919        C922   1.405       .  A
C919        C926   1.407       .  A
C922        C923   1.397       .  A
C922        F927   1.358       .  S
C923        C924   1.406       .  A
C923        F929   1.357       .  S
C924        C925   1.407       .  A
C925        C926   1.399       .  A
C925        F928   1.358       .  S
C926        F930   1.358       .  S
C933        C934   1.403       .  A
C933        C938   1.398       .  A
C933        F951   1.358       .  S
C934        C939   1.480       .  S
C934        C935   1.404       .  A
C935        C936   1.400       .  A
C935        F940   1.358       .  S
C936        C937   1.412       .  A
C936        F952   1.358       .  S
C937        C938   1.410       .  A
C938        F941   1.358       .  S
C939        C942   1.403       .  A
C939        C946   1.405       .  A
C942        C943   1.398       .  A
C942        F947   1.358       .  S
C943        C944   1.409       .  A
C943        F949   1.357       .  S
C944        C945   1.409       .  A
C945        C946   1.400       .  A
C945        F948   1.357       .  S
C946        F950   1.358       .  S
C953        C954   1.403       .  A
C953        C958   1.398       .  A
C953        F971   1.358       .  S
C954        C959   1.482       .  S
C954        C955   1.404       .  A
C955        C956   1.401       .  A
C955        F960   1.358       .  S
C956        C957   1.412       .  A
C956        F972   1.358       .  S
C957        C958   1.412       .  A
C958        F961   1.358       .  S
C959        C962   1.405       .  A
C959        C966   1.404       .  A
C962        C963   1.401       .  A
C962        F967   1.358       .  S
C963        C964   1.409       .  A
C963        F969   1.358       .  S
C964        C965   1.408       .  A
C965        C966   1.397       .  A
C965        F968   1.357       .  S
C966        F970   1.358       .  S
C973        C974   1.401       .  A
C973        C978   1.399       .  A
C973        F991   1.358       .  S
C974        C979   1.471       .  S
C974        C975   1.400       .  A
C975        C976   1.397       .  A
C975        F980   1.358       .  S
C976        C977   1.412       .  A
C976        F992   1.357       .  S
C977        C978   1.414       .  A
C978        F981   1.358       .  S
C979        C982   1.401       .  A
C979        C986   1.402       .  A
C982        C983   1.398       .  A
C982        F987   1.358       .  S
C983        C984   1.410       .  A
C983        F989   1.357       .  S
C984        C985   1.409       .  A
C985        C986   1.398       .  A
C985        F988   1.357       .  S
C986        F990   1.358       .  S
C993        C994   1.402       .  A
C993        C998   1.399       .  A
C993       F1011   1.358       .  S
C994        C999   1.478       .  S
C994        C995   1.403       .  A
C995        C996   1.400       .  A
C995       F1000   1.358       .  S
C996        C997   1.410       .  A
C996       F1012   1.357       .  S
C997        C998   1.410       .  A
C998       F1001   1.357       .  S
C999       C1002   1.403       .  A
C999       C1006   1.401       .  A
C1002      C1003   1.400       .  A
C1002      F1007   1.358       .  S
C1003      C1004   1.412       .  A
C1003      F1009   1.358       .  S
C1004      C1005   1.413       .  A
C1005      C1006   1.398       .  A
C1005      F1008   1.358       .  S
C1006      F1010   1.358       .  S
C1013      C1014   1.406       .  A
C1013      C1018   1.399       .  A
C1013      F1031   1.358       .  S
C1014      C1019   1.487       .  S
C1014      C1015   1.408       .  A
C1015      C1016   1.401       .  A
C1015      F1020   1.358       .  S
C1016      C1017   1.407       .  A
C1016      F1032   1.358       .  S
C1017      C1018   1.407       .  A
C1018      F1021   1.358       .  S
C1019      C1022   1.408       .  A
C1019      C1026   1.406       .  A
C1022      C1023   1.400       .  A
C1022      F1027   1.358       .  S
C1023      C1024   1.406       .  A
C1023      F1029   1.358       .  S
C1024      C1025   1.407       .  A
C1025      C1026   1.399       .  A
C1025      F1028   1.358       .  S
C1026      F1030   1.358       .  S
C1033      C1034   1.404       .  A
C1033      C1038   1.400       .  A
C1033      F1051   1.358       .  S
C1034      C1039   1.480       .  S
C1034      C1035   1.405       .  A
C1035      C1036   1.399       .  A
C1035      F1040   1.358       .  S
C1036      C1037   1.407       .  A
C1036      F1052   1.357       .  S
C1037      C1038   1.409       .  A
C1038      F1041   1.358       .  S
C1039      C1042   1.403       .  A
C1039      C1046   1.401       .  A
C1042      C1043   1.402       .  A
C1042      F1047   1.358       .  S
C1043      C1044   1.414       .  A
C1043      F1049   1.358       .  S
C1044      C1045   1.413       .  A
C1045      C1046   1.398       .  A
C1045      F1048   1.357       .  S
C1046      F1050   1.358       .  S
C1053      C1054   1.402       .  A
C1053      C1058   1.399       .  A
C1053      F1071   1.358       .  S
C1054      C1059   1.475       .  S
C1054      C1055   1.403       .  A
C1055      C1056   1.400       .  A
C1055      F1060   1.358       .  S
C1056      C1057   1.409       .  A
C1056      F1072   1.357       .  S
C1057      C1058   1.409       .  A
C1058      F1061   1.357       .  S
C1059      C1062   1.400       .  A
C1059      C1066   1.403       .  A
C1062      C1063   1.397       .  A
C1062      F1067   1.358       .  S
C1063      C1064   1.412       .  A
C1063      F1069   1.358       .  S
C1064      C1065   1.412       .  A
C1065      C1066   1.402       .  A
C1065      F1068   1.358       .  S
C1066      F1070   1.358       .  S
C1073      C1074   1.405       .  A
C1073      C1078   1.401       .  A
C1073      F1091   1.358       .  S
C1074      C1079   1.486       .  S
C1074      C1075   1.406       .  A
C1075      C1076   1.401       .  A
C1075      F1080   1.358       .  S
C1076      C1077   1.409       .  A
C1076      F1092   1.357       .  S
C1077      C1078   1.411       .  A
C1078      F1081   1.357       .  S
C1079      C1082   1.405       .  A
C1079      C1086   1.404       .  A
C1082      C1083   1.402       .  A
C1082      F1087   1.358       .  S
C1083      C1084   1.414       .  A
C1083      F1089   1.358       .  S
C1084      C1085   1.412       .  A
C1085      C1086   1.400       .  A
C1085      F1088   1.357       .  S
C1086      F1090   1.358       .  S
C1093      C1094   1.403       .  A
C1093      C1098   1.402       .  A
C1093      F1111   1.358       .  S
C1094      C1099   1.478       .  S
C1094      C1095   1.401       .  A
C1095      C1096   1.398       .  A
C1095      F1100   1.358       .  S
C1096      C1097   1.411       .  A
C1096      F1112   1.357       .  S
C1097      C1098   1.411       .  A
C1098      F1101   1.357       .  S
C1099      C1102   1.403       .  A
C1099      C1106   1.403       .  A
C1102      C1103   1.401       .  A
C1102      F1107   1.358       .  S
C1103      C1104   1.412       .  A
C1103      F1109   1.358       .  S
C1104      C1105   1.409       .  A
C1105      C1106   1.399       .  A
C1105      F1108   1.358       .  S
C1106      F1110   1.358       .  S
C1113      C1114   1.402       .  A
C1113      C1118   1.398       .  A
C1113      F1131   1.358       .  S
C1114      C1119   1.473       .  S
C1114      C1115   1.402       .  A
C1115      C1116   1.397       .  A
C1115      F1120   1.358       .  S
C1116      C1117   1.409       .  A
C1116      F1132   1.357       .  S
C1117      C1118   1.410       .  A
C1118      F1121   1.357       .  S
C1119      C1122   1.400       .  A
C1119      C1126   1.402       .  A
C1122      C1123   1.397       .  A
C1122      F1127   1.358       .  S
C1123      C1124   1.413       .  A
C1123      F1129   1.358       .  S
C1124      C1125   1.412       .  A
C1125      C1126   1.398       .  A
C1125      F1128   1.358       .  S
C1126      F1130   1.358       .  S
C1133      C1134   1.403       .  A
C1133      C1138   1.400       .  A
C1133      F1151   1.358       .  S
C1134      C1139   1.478       .  S
C1134      C1135   1.403       .  A
C1135      C1136   1.400       .  A
C1135      F1140   1.358       .  S
C1136      C1137   1.411       .  A
C1136      F1152   1.357       .  S
C1137      C1138   1.409       .  A
C1138      F1141   1.357       .  S
C1139      C1142   1.401       .  A
C1139      C1146   1.403       .  A
C1142      C1143   1.399       .  A
C1142      F1147   1.358       .  S
C1143      C1144   1.413       .  A
C1143      F1149   1.358       .  S
C1144      C1145   1.413       .  A
C1145      C1146   1.401       .  A
C1145      F1148   1.358       .  S
C1146      F1150   1.358       .  S
C1153      C1154   1.406       .  A
C1153      C1158   1.399       .  A
C1153      F1171   1.358       .  S
C1154      C1159   1.484       .  S
C1154      C1155   1.408   1_545  A
C1155      C1156   1.399       .  A
C1155      F1160   1.358       .  S
C1156      C1157   1.404   1_565  A
C1156      F1172   1.358       .  S
C1157      C1158   1.406       .  A
C1158      F1161   1.358       .  S
C1159      C1162   1.405   1_545  A
C1159      C1166   1.406       .  A
C1162      C1163   1.398       .  A
C1162      F1167   1.358       .  S
C1163      C1164   1.408   1_565  A
C1163      F1169   1.357       .  S
C1164      C1165   1.408       .  A
C1165      C1166   1.400       .  A
C1165      F1168   1.358       .  S
C1166      F1170   1.358       .  S
C1173      C1174   1.406       .  A
C1173      C1178   1.400       .  A
C1173      F1191   1.358       .  S
C1174      C1179   1.484       .  S
C1174      C1175   1.405   1_545  A
C1175      C1176   1.400       .  A
C1175      F1180   1.358       .  S
C1176      C1177   1.410   1_565  A
C1176      F1192   1.358       .  S
C1177      C1178   1.406       .  A
C1178      F1181   1.357       .  S
C1179      C1182   1.406   1_545  A
C1179      C1186   1.405       .  A
C1182      C1183   1.400       .  A
C1182      F1187   1.358       .  S
C1183      C1184   1.408   1_565  A
C1183      F1189   1.358       .  S
C1184      C1185   1.408       .  A
C1185      C1186   1.399       .  A
C1185      F1188   1.357       .  S
C1186      F1190   1.358       .  S
C1193      C1194   1.403   1_565  A
C1193      C1198   1.400       .  A
C1193      F1211   1.358       .  S
C1194      C1199   1.478       .  S
C1194      C1195   1.402       .  A
C1195      C1196   1.397       .  A
C1195      F1200   1.358       .  S
C1196      C1197   1.413       .  A
C1196      F1212   1.358       .  S
C1197      C1198   1.413   1_545  A
C1198      F1201   1.358       .  S
C1199      C1202   1.401       .  A
C1199      C1206   1.402   1_545  A
C1202      C1203   1.397       .  A
C1202      F1207   1.358       .  S
C1203      C1204   1.412       .  A
C1203      F1209   1.356       .  S
C1204      C1205   1.413   1_545  A
C1205      C1206   1.400       .  A
C1205      F1208   1.357       .  S
C1206      F1210   1.358       .  S
C1213      C1214   1.403   1_545  A
C1213      C1218   1.401       .  A
C1213      F1231   1.358       .  S
C1214      C1219   1.485       .  S
C1214      C1215   1.404       .  A
C1215      C1216   1.402       .  A
C1215      F1220   1.358       .  S
C1216      C1217   1.412       .  A
C1216      F1232   1.357       .  S
C1217      C1218   1.412   1_565  A
C1218      F1221   1.357       .  S
C1219      C1222   1.403       .  A
C1219      C1226   1.404   1_565  A
C1222      C1223   1.400       .  A
C1222      F1227   1.358       .  S
C1223      C1224   1.414   1_565  A
C1223      F1229   1.358       .  S
C1224      C1225   1.413       .  A
C1225      C1226   1.403       .  A
C1225      F1228   1.358       .  S
C1226      F1230   1.358       .  S
C1233      C1234   1.405       .  A
C1233      C1238   1.398       .  A
C1233      F1251   1.358       .  S
C1234      C1239   1.481       .  S
C1234      C1235   1.406       .  A
C1235      C1236   1.399       .  A
C1235      F1240   1.358       .  S
C1236      C1237   1.407       .  A
C1236      F1252   1.357       .  S
C1237      C1238   1.408       .  A
C1238      F1241   1.358       .  S
C1239      C1242   1.405       .  A
C1239      C1246   1.403       .  A
C1242      C1243   1.399       .  A
C1242      F1247   1.358       .  S
C1243      C1244   1.411       .  A
C1243      F1249   1.358       .  S
C1244      C1245   1.412       .  A
C1245      C1246   1.397       .  A
C1245      F1248   1.358       .  S
C1246      F1250   1.358       .  S
C1253      C1254   1.405       .  A
C1253      C1258   1.401       .  A
C1253      F1271   1.358       .  S
C1254      C1259   1.483       .  S
C1254      C1255   1.404       .  A
C1255      C1256   1.398       .  A
C1255      F1260   1.358       .  S
C1256      C1257   1.410       .  A
C1256      F1272   1.357       .  S
C1257      C1258   1.410       .  A
C1258      F1261   1.357       .  S
C1259      C1262   1.405       .  A
C1259      C1266   1.403       .  A
C1262      C1263   1.400       .  A
C1262      F1267   1.358       .  S
C1263      C1264   1.412       .  A
C1263      F1269   1.358       .  S
C1264      C1265   1.413       .  A
C1265      C1266   1.399       .  A
C1265      F1268   1.358       .  S
C1266      F1270   1.358       .  S
C1273      C1274   1.405       .  A
C1273      C1278   1.397       .  A
C1273      F1291   1.358       .  S
C1274      C1279   1.485       .  S
C1274      C1275   1.407       .  A
C1275      C1276   1.404       .  A
C1275      F1280   1.358       .  S
C1276      C1277   1.408       .  A
C1276      F1292   1.358       .  S
C1277      C1278   1.408       .  A
C1278      F1281   1.358       .  S
C1279      C1282   1.406       .  A
C1279      C1286   1.406       .  A
C1282      C1283   1.403       .  A
C1282      F1287   1.358       .  S
C1283      C1284   1.409       .  A
C1283      F1289   1.358       .  S
C1284      C1285   1.407       .  A
C1285      C1286   1.398       .  A
C1285      F1288   1.357       .  S
C1286      F1290   1.358       .  S
C1293      C1294   1.408       .  A
C1293      C1298   1.401       .  A
C1293      F1311   1.358       .  S
C1294      C1299   1.479       .  S
C1294      C1295   1.405       .  A
C1295      C1296   1.394       .  A
C1295      F1300   1.358       .  S
C1296      C1297   1.402       .  A
C1296      F1312   1.358       .  S
C1297      C1298   1.404       .  A
C1298      F1301   1.358       .  S
C1299      C1302   1.406       .  A
C1299      C1306   1.404       .  A
C1302      C1303   1.397       .  A
C1302      F1307   1.358       .  S
C1303      C1304   1.406       .  A
C1303      F1309   1.357       .  S
C1304      C1305   1.410       .  A
C1305      C1306   1.399       .  A
C1305      F1308   1.358       .  S
C1306      F1310   1.358       .  S
C1313      C1314   1.406       .  A
C1313      C1318   1.400       .  A
C1313      F1331   1.358       .  S
C1314      C1319   1.485       .  S
C1314      C1315   1.408       .  A
C1315      C1316   1.399       .  A
C1315      F1320   1.358       .  S
C1316      C1317   1.404       .  A
C1316      F1332   1.358       .  S
C1317      C1318   1.407       .  A
C1318      F1321   1.358       .  S
C1319      C1322   1.407       .  A
C1319      C1326   1.405       .  A
C1322      C1323   1.402       .  A
C1322      F1327   1.358       .  S
C1323      C1324   1.409       .  A
C1323      F1329   1.357       .  S
C1324      C1325   1.408       .  A
C1325      C1326   1.398       .  A
C1325      F1328   1.357       .  S
C1326      F1330   1.358       .  S
C1333      C1334   1.400       .  A
C1333      C1338   1.396       .  A
C1333      F1351   1.358       .  S
C1334      C1339   1.474       .  S
C1334      C1335   1.403       .  A
C1335      C1336   1.401       .  A
C1335      F1340   1.358       .  S
C1336      C1337   1.412       .  A
C1336      F1352   1.358       .  S
C1337      C1338   1.411       .  A
C1338      F1341   1.358       .  S
C1339      C1342   1.401       .  A
C1339      C1346   1.402       .  A
C1342      C1343   1.397       .  A
C1342      F1347   1.358       .  S
C1343      C1344   1.410       .  A
C1343      F1349   1.357       .  S
C1344      C1345   1.412       .  A
C1345      C1346   1.399       .  A
C1345      F1348   1.357       .  S
C1346      F1350   1.358       .  S
C1353      C1354   1.405       .  A
C1353      C1358   1.400       .  A
C1353      F1371   1.358       .  S
C1354      C1359   1.489       .  S
C1354      C1355   1.407       .  A
C1355      C1356   1.402       .  A
C1355      F1360   1.358       .  S
C1356      C1357   1.409       .  A
C1356      F1372   1.357       .  S
C1357      C1358   1.410       .  A
C1358      F1361   1.357       .  S
C1359      C1362   1.408       .  A
C1359      C1366   1.407       .  A
C1362      C1363   1.402       .  A
C1362      F1367   1.358       .  S
C1363      C1364   1.407       .  A
C1363      F1369   1.358       .  S
C1364      C1365   1.406       .  A
C1365      C1366   1.400       .  A
C1365      F1368   1.358       .  S
C1366      F1370   1.358       .  S
C1373      C1374   1.406       .  A
C1373      C1378   1.399       .  A
C1373      F1391   1.358       .  S
C1374      C1379   1.486       .  S
C1374      C1375   1.406       .  A
C1375      C1376   1.400       .  A
C1375      F1380   1.358       .  S
C1376      C1377   1.409       .  A
C1376      F1392   1.357       .  S
C1377      C1378   1.409       .  A
C1378      F1381   1.357       .  S
C1379      C1382   1.406       .  A
C1379      C1386   1.405       .  A
C1382      C1383   1.401       .  A
C1382      F1387   1.358       .  S
C1383      C1384   1.411       .  A
C1383      F1389   1.358       .  S
C1384      C1385   1.410       .  A
C1385      C1386   1.398       .  A
C1385      F1388   1.358       .  S
C1386      F1390   1.358       .  S
C1393      C1394   1.409       .  A
C1393      C1398   1.403       .  A
C1393      F1411   1.358       .  S
C1394      C1399   1.493       .  S
C1394      C1395   1.410       .  A
C1395      C1396   1.401       .  A
C1395      F1400   1.358       .  S
C1396      C1397   1.405       .  A
C1396      F1412   1.358       .  S
C1397      C1398   1.407       .  A
C1398      F1401   1.358       .  S
C1399      C1402   1.411       .  A
C1399      C1406   1.407       .  A
C1402      C1403   1.403       .  A
C1402      F1407   1.358       .  S
C1403      C1404   1.408       .  A
C1403      F1409   1.358       .  S
C1404      C1405   1.407       .  A
C1405      C1406   1.397       .  A
C1405      F1408   1.357       .  S
C1406      F1410   1.358       .  S
C1413      C1414   1.406       .  A
C1413      C1418   1.398       .  A
C1413      F1431   1.358       .  S
C1414      C1419   1.484       .  S
C1414      C1415   1.407       .  A
C1415      C1416   1.398       .  A
C1415      F1420   1.358       .  S
C1416      C1417   1.405       .  A
C1416      F1432   1.358       .  S
C1417      C1418   1.407       .  A
C1418      F1421   1.358       .  S
C1419      C1422   1.407       .  A
C1419      C1426   1.406       .  A
C1422      C1423   1.400       .  A
C1422      F1427   1.358       .  S
C1423      C1424   1.409       .  A
C1423      F1429   1.358       .  S
C1424      C1425   1.406       .  A
C1425      C1426   1.396       .  A
C1425      F1428   1.358       .  S
C1426      F1430   1.358       .  S
C1433      C1434   1.402       .  A
C1433      C1438   1.399       .  A
C1433      F1451   1.358       .  S
C1434      C1439   1.476       .  S
C1434      C1435   1.402       .  A
C1435      C1436   1.400       .  A
C1435      F1440   1.358       .  S
C1436      C1437   1.412       .  A
C1436      F1452   1.357       .  S
C1437      C1438   1.410       .  A
C1438      F1441   1.357       .  S
C1439      C1442   1.401       .  A
C1439      C1446   1.402       .  A
C1442      C1443   1.400       .  A
C1442      F1447   1.358       .  S
C1443      C1444   1.413       .  A
C1443      F1449   1.358       .  S
C1444      C1445   1.411       .  A
C1445      C1446   1.399       .  A
C1445      F1448   1.358       .  S
C1446      F1450   1.358       .  S
C1453      C1454   1.402       .  A
C1453      C1458   1.398       .  A
C1453      F1471   1.358       .  S
C1454      C1459   1.478       .  S
C1454      C1455   1.403       .  A
C1455      C1456   1.399       .  A
C1455      F1460   1.358       .  S
C1456      C1457   1.412       .  A
C1456      F1472   1.358       .  S
C1457      C1458   1.413       .  A
C1458      F1461   1.358       .  S
C1459      C1462   1.403       .  A
C1459      C1466   1.403       .  A
C1462      C1463   1.399       .  A
C1462      F1467   1.358       .  S
C1463      C1464   1.409       .  A
C1463      F1469   1.357       .  S
C1464      C1465   1.411       .  A
C1465      C1466   1.398       .  A
C1465      F1468   1.357       .  S
C1466      F1470   1.358       .  S
C1473      C1474   1.404       .  A
C1473      C1478   1.396       .  A
C1473      F1491   1.358       .  S
C1474      C1479   1.477       .  S
C1474      C1475   1.404       .  A
C1475      C1476   1.397       .  A
C1475      F1480   1.358       .  S
C1476      C1477   1.409       .  A
C1476      F1492   1.358       .  S
C1477      C1478   1.410       .  A
C1478      F1481   1.358       .  S
C1479      C1482   1.405       .  A
C1479      C1486   1.406       .  A
C1482      C1483   1.396       .  A
C1482      F1487   1.358       .  S
C1483      C1484   1.405       .  A
C1483      F1489   1.358       .  S
C1484      C1485   1.405       .  A
C1485      C1486   1.398       .  A
C1485      F1488   1.358       .  S
C1486      F1490   1.358       .  S
C1493      C1494   1.403       .  A
C1493      C1498   1.398       .  A
C1493      F1511   1.358       .  S
C1494      C1499   1.478       .  S
C1494      C1495   1.404       .  A
C1495      C1496   1.400       .  A
C1495      F1500   1.358       .  S
C1496      C1497   1.409       .  A
C1496      F1512   1.357       .  S
C1497      C1498   1.409       .  A
C1498      F1501   1.357       .  S
C1499      C1502   1.402       .  A
C1499      C1506   1.402       .  A
C1502      C1503   1.399       .  A
C1502      F1507   1.358       .  S
C1503      C1504   1.413       .  A
C1503      F1509   1.358       .  S
C1504      C1505   1.413       .  A
C1505      C1506   1.399       .  A
C1505      F1508   1.358       .  S
C1506      F1510   1.358       .  S
