geometry optimzed in LAMMPS
_audit_creation_date              2020-11-30 
_audit_creation_method            'lammps2cif' 
_symmetry_space_group_name_H-M    'P1' 
_symmetry_Int_Tables_number       1 
_symmetry_cell_setting            triclinic 
loop_ 
_symmetry_equiv_pos_as_xyz 
  x,y,z 
_cell_length_a                    30.328954408339037 
_cell_length_b                    30.43888700572953 
_cell_length_c                    30.391070678802325 
_cell_angle_alpha                 88.90929763554198 
_cell_angle_beta                  89.26983932128694 
_cell_angle_gamma                 88.80616638334799 
loop_ 
_atom_site_label 
_atom_site_type_symbol 
_atom_site_fract_x 
_atom_site_fract_y 
_atom_site_fract_z 
_atom_site_charge 
C1          C  0.51709909  0.12358001  0.22484201    -0.00560
O2          O  0.45600531  0.08306401  0.37152360    -0.84560
O3          O  0.15373377  0.45492110  0.45622966    -0.84730
O4          O  0.09630470  0.10369002  0.41427672    -0.86390
O5          O  0.06102757  0.48340863  0.33726008    -0.85150
O6          O  0.01236644  0.42797967  0.35172323    -0.84740
O7          O  0.08613085  0.12327213  0.48633435    -0.86110
O8          O  0.14192550  0.50559807  0.40061851    -0.84590
O9          O  0.02774865  0.07169344  0.34960933    -0.84180
Zr10       Zr  0.06519145  0.02872165  0.40367758     2.84310
O11         O  0.06130676  0.45509496  0.42796539    -1.06150
O12         O  0.02020807  0.07279636  0.44878365    -1.06880
C13         C  0.48804139  0.08510293  0.34288575     1.08550
C14         C  0.16672783  0.47822919  0.42236156     1.08490
C15         C  0.09938883  0.13101765  0.44669191     1.11470
C16         C  0.03863258  0.44938623  0.32591393     1.09250
H17         H  0.11914123  0.03425827  0.47676399     0.34810
O18         O  0.08929598  0.02390843  0.47599256    -1.27100
H19         H  0.48263947  0.50639699  0.37467926     0.34480
O20         O  0.99248883  0.50547441  0.40382691    -1.28780
O21         O  0.07632808  0.41943533  0.07673109    -0.84550
O22         O  0.37636677  0.04129208  0.48564642    -0.86050
O23         O  0.11217735  0.05117761  0.06259276    -0.84630
O24         O  0.02965858  0.36289315  0.43238932    -0.84680
O25         O  0.41885079  0.45056921  0.38861040    -0.84390
O26         O  0.00099590  0.13731426  0.01744074    -0.84200
O27         O  0.47148435  0.01643646  0.11145155    -0.84570
O28         O  0.43238964  0.39804845  0.03506288    -0.84030
O29         O  0.01982855  0.07066064  0.09810285    -0.85100
O30         O  0.44404754  0.37779804  0.46254554    -0.84250
O31         O  0.13485980  0.47916225  0.05018613    -0.84650
O32         O  0.44569854  0.12530567  0.46826605    -0.84370
O33         O  0.39475655  0.52054214  0.40516946    -0.84020
O34         O  0.08582756  0.37474470  0.48014864    -0.84430
O35         O  0.00484566  0.43171252  0.09966676    -0.84730
O36         O  0.39038076  0.49769698  0.04922121    -0.86070
Zr37       Zr  0.08440202  0.45076651  0.50079674     2.83100
Zr38       Zr  0.44774752  0.04974705  0.44606451     2.83500
Zr39       Zr  0.04334893  0.06748047  0.02231335     2.84090
Zr40       Zr  0.98757029  0.43284386  0.42725208     2.83360
Zr41       Zr  0.46619078  0.47214891  0.04502651     2.84220
O42         O  0.44253338  0.47772931  0.47199726    -1.06640
O43         O  0.03889084  0.49446837  0.04508730    -1.06140
C44         C  0.04469455  0.41829162  0.10579711     1.08520
C45         C  0.36756649  0.02844875  0.02765345     1.11140
C46         C  0.13936374  0.01782753  0.06587265     1.08690
C47         C  0.06329773  0.34991306  0.45536889     1.09050
C48         C  0.39129182  0.48374120  0.38625899     1.08640
C49         C  0.46788197  0.14992739  0.49355166     1.08190
C50         C  0.99351981  0.04937083  0.12387821     1.08610
C51         C  0.42936492  0.37071762  0.00259732     1.08130
H52         H  0.45311185  0.06504166  0.03856142     0.34810
O53         O  0.47117487  0.04617488  0.02017604    -1.27740
H54         H  0.01122703  0.39760100  0.01161641     0.34830
O55         O  0.01170379  0.42779218  0.49997320    -1.29120
C56         C  0.26148744  0.00580382  0.09710332    -0.00560
O57         O  0.16365059  0.16855886  0.28276377    -0.84560
O58         O  0.25068374  0.29550605  0.08553899    -0.84730
O59         O  0.12890277  0.26377072  0.18088047    -0.86390
O60         O  0.21724764  0.15344835  0.13528771    -0.85150
O61         O  0.28701688  0.12874152  0.15320416    -0.84740
O62         O  0.14092311  0.31855072  0.22959257    -0.86110
O63         O  0.19597688  0.24588214  0.09937605    -0.84590
O64         O  0.14400552  0.17844641  0.21049728    -0.84180
Zr65       Zr  0.19951342  0.22195601  0.17527905     2.84310
O66         O  0.27270644  0.22754014  0.15337286    -1.06150
O67         O  0.19404804  0.24524334  0.24791996    -1.06880
C68         C  0.13630074  0.16524293  0.25020151     1.08550
C69         C  0.21724596  0.27235927  0.07371412     1.08490
C70         C  0.11590596  0.29672693  0.20451250     1.11470
C71         C  0.25035046  0.12571691  0.13349846     1.09250
H72         H  0.20251049  0.31413722  0.15861254     0.34810
O73         O  0.22134350  0.29563204  0.17685322    -1.27100
H74         H  0.23359821  0.14632896  0.22000037     0.34480
O75         O  0.24335891  0.17628814  0.22092991    -1.28780
O76         O  0.36965411  0.33409901  0.16415150    -0.84550
O77         O  0.28314961  0.20596597  0.36154931    -0.86050
O78         O  0.22135736  0.38754542  0.20645387    -0.84630
O79         O  0.34721100  0.19006593  0.12212004    -0.84680
O80         O  0.31788975  0.11566375  0.24598921    -0.84390
O81         O  0.18322163  0.30902043  0.32416545    -0.84200
O82         O  0.31872945  0.34707900  0.31001711    -0.84570
O83         O  0.40560427  0.23624480  0.26567565    -0.84030
O84         O  0.24729905  0.36938980  0.29627854    -0.85100
O85         O  0.39341945  0.18131084  0.21716991    -0.84250
O86         O  0.27222497  0.37658599  0.15110757    -0.84650
O87         O  0.19525476  0.23757365  0.34723539    -0.84370
O88         O  0.26407131  0.12479130  0.29906700    -0.84020
O89         O  0.33595829  0.26167816  0.09934792    -0.84430
O90         O  0.38956114  0.32311484  0.23623070    -0.84730
O91         O  0.33930019  0.25390328  0.34713545    -0.86070
Zr92       Zr  0.29545536  0.30034466  0.15401313     2.83100
Zr93       Zr  0.23844996  0.20039474  0.29328823     2.83500
Zr94       Zr  0.21692683  0.31768929  0.24992137     2.84090
Zr95       Zr  0.31707580  0.18225562  0.19780329     2.83360
Zr96       Zr  0.33517653  0.27801637  0.27115448     2.84220
O97         O  0.31260543  0.20475900  0.27055290    -1.06640
O98         O  0.29043190  0.32362141  0.22659102    -1.06140
C99         C  0.39697478  0.33730484  0.19680442     1.08520
C100        C  0.31718358  0.22835420  0.37308462     1.11140
C101        C  0.24497985  0.40102150  0.17306054     1.08690
C102        C  0.34884170  0.22186862  0.09314552     1.09050
C103        C  0.29453612  0.10211427  0.27945737     1.08640
C104        C  0.18135254  0.27714912  0.35308671     1.08190
C105        C  0.28497772  0.37372722  0.31365285     1.08610
C106        C  0.41851367  0.20329522  0.24206579     1.08130
H107        H  0.26151883  0.28358847  0.32387128     0.34810
O108        O  0.26226402  0.27298997  0.29419101    -1.27740
H109        H  0.36996485  0.25527812  0.18708787     0.34830
O110        O  0.34013911  0.25465443  0.19841649    -1.29120
C111        C  0.14215032  0.24981551  0.47173067    -0.00560
C112        C  0.01680273  0.37659467  0.22308176    -0.00560
C113        C  0.38919734  0.25069226  0.47640388    -0.00560
C114        C  0.27150809  0.49475921  0.34760937    -0.00560
C115        C  0.16275174  0.28550238  0.39708213    -0.14500
C116        C  0.17001456  0.25569690  0.43021530    -0.29680
H117        H  0.14203765  0.31450165  0.40088318     0.14520
H118        H  0.19454631  0.22962782  0.42521858     0.15090
C119        C  0.19989843  0.27656569  0.02781693    -0.14500
C120        C  0.17310281  0.24523624  0.01203302    -0.29680
H121        H  0.20542160  0.30659991  0.00888332     0.14520
H122        H  0.17030777  0.21494182  0.03138671     0.15090
C123        C  0.33361898  0.22463104  0.41923640    -0.14500
C124        C  0.36030786  0.25584529  0.43529423    -0.29680
H125        H  0.32700011  0.19509105  0.43858818     0.14520
H126        H  0.36431997  0.28575400  0.41557418     0.15090
C127        C  0.36720158  0.21359733  0.04899581    -0.14500
C128        C  0.36079317  0.24420290  0.01644692    -0.29680
H129        H  0.38811277  0.18474260  0.04494286     0.14520
H130        H  0.33600557  0.27003935  0.02140962     0.15090
C131        C  0.26736846  0.45074641  0.32568032    -0.14500
C132        C  0.28877255  0.41327671  0.33892896    -0.29680
H133        H  0.24571176  0.45000627  0.29742931     0.14520
H134        H  0.30941630  0.41137805  0.36776513     0.15090
C135        C  0.27069122  0.03117864  0.31030853    -0.14500
C136        C  0.30411086  0.05816353  0.29910492    -0.29680
H137        H  0.23881132  0.03861488  0.29551265     0.14520
H138        H  0.33761046  0.05139663  0.30952670     0.15090
C139        C  0.47334772  0.35241397  0.22038941    -0.14500
C140        C  0.44080971  0.35806527  0.18981200    -0.29680
H141        H  0.46730129  0.33021794  0.24818223     0.14520
H142        H  0.44547956  0.37870228  0.16073153     0.15090
C143        C  0.06949782  0.31308191  0.20216919    -0.14500
C144        C  0.05548739  0.34454389  0.23039729    -0.29680
H145        H  0.04963472  0.30479916  0.17414271     0.14520
H146        H  0.07528062  0.34998464  0.25931359     0.15090
C147        C  0.23999204  0.44752190  0.15704807    -0.14500
C148        C  0.26944828  0.46458101  0.12767576    -0.29680
H149        H  0.21037774  0.46610289  0.16593748     0.14520
H150        H  0.29928086  0.44520790  0.12107787     0.15090
C151        C  0.24740219  0.08660145  0.10738929    -0.14500
C152        C  0.26333286  0.04759886  0.12331007    -0.29680
H153        H  0.23233972  0.08948126  0.07520327     0.14520
H154        H  0.27620788  0.04544746  0.15655827     0.15090
C155        C  0.02311579  0.40593179  0.18261729    -0.14500
C156        C  0.05341149  0.39981806  0.14991671    -0.29680
H157        H  0.99703690  0.43056506  0.17779855     0.14520
H158        H  0.08253654  0.37914002  0.15387308     0.15090
C159        C  0.04315724  0.43205521  0.28022890    -0.14500
C160        C  0.01202954  0.40519431  0.26419138    -0.29680
H161        H  0.07287866  0.43861657  0.26113695     0.14520
H162        H  0.98194790  0.40133835  0.28367605     0.15090
C163        C  0.23000830  0.50228395  0.37613749    -0.14500
C164        C  0.21314333  0.47302125  0.40584141    -0.29680
H165        H  0.21035530  0.53181921  0.36899976     0.14520
H166        H  0.23155240  0.94303941  0.41287401     0.15090
C167        C  0.31289368  0.49600176  0.37501308    -0.14500
C168        C  0.35234388  0.48103264  0.35954853    -0.29680
H169        H  0.31017657  0.50783532  0.40852627     0.14520
H170        H  0.35585246  0.46725708  0.32695351     0.15090
C171        C  0.17941826  0.02162059  0.09071316    -0.14500
C172        C  0.21702105  0.00168162  0.07582535    -0.29680
H173        H  0.17812390  0.04128272  0.12009560     0.14520
H174        H  0.21606888  0.98169743  0.04653331     0.15090
C175        C  0.29763176  0.00453239  0.06097698    -0.14500
C176        C  0.32352686  0.03796560  0.04727802    -0.29680
H177        H  0.30566101  0.97225218  0.04784861     0.14520
H178        H  0.31626203  0.57142027  0.05801542     0.15090
C179        C  0.45168113  0.19615733  0.49699224    -0.14500
C180        C  0.42045539  0.21143672  0.46888948    -0.29680
H181        H  0.46240437  0.21715779  0.02411920     0.14520
H182        H  0.41470486  0.19232576  0.43970474     0.15090
C183        C  0.40914508  0.32670839  0.00976601    -0.14500
C184        C  0.41564754  0.29412132  0.97967065    -0.29680
H185        H  0.38798232  0.32204141  0.03841253     0.14520
H186        H  0.43799248  0.29922205  0.45196085     0.15090
C187        C  0.11976459  0.17487895  0.43907492    -0.14500
C188        C  0.11569844  0.20717802  0.46975202    -0.29680
H189        H  0.13935586  0.17959562  0.40934197     0.14520
H190        H  0.09454014  0.20118153  0.49830545     0.15090
C191        C  0.11108624  0.28890384  0.47997356    -0.14500
C192        C  0.07893319  0.30355987  0.45267939    -0.29680
H193        H  0.11783847  0.30843957  0.50862594     0.14520
H194        H  0.06922618  0.28401667  0.42501791     0.15090
C195        C  0.98951135  0.06683605  0.16960465    -0.14500
C196        C  0.02098573  0.09376608  0.18501984    -0.29680
H197        H  0.95966905  0.06105158  0.18876975     0.14520
H198        H  0.55227437  0.09675055  0.16543594     0.15090
C199        C  0.01013731  0.09620325  0.26656830    -0.14500
C200        C  0.47978952  0.10297882  0.29852356    -0.29680
H201        H  0.03613672  0.07162827  0.27207527     0.14520
H202        H  0.45061349  0.12342003  0.29388864     0.15090
C203        C  0.47874204  0.15550985  0.21642119    -0.14500
C204        C  0.46496137  0.18749244  0.24404369    -0.29680
H205        H  0.45890075  0.14939354  0.18769287     0.14520
H206        H  0.48498102  0.19630092  0.27178741     0.15090
C207        C  0.05981524  0.14948159  0.22704293    -0.14500
C208        C  0.09232786  0.14491151  0.25774671    -0.29680
H209        H  0.06591841  0.17067027  0.19848784     0.14520
H210        H  0.08756543  0.12529588  0.28750965     0.15090
C211        C  0.51540975  0.12431383  0.72473204    -0.00560
O212        O  0.45669393  0.08450021  0.87250279    -0.84560
O213        O  0.15565788  0.45666197  0.96031615    -0.84730
O214        O  0.09655269  0.10397259  0.91496303    -0.86390
O215        O  0.06130885  0.48336154  0.83761834    -0.85150
O216        O  0.01212340  0.42832715  0.85184178    -0.84740
O217        O  0.08632929  0.12350849  0.98701006    -0.86110
O218        O  0.14260259  0.50465578  0.90272368    -0.84590
O219        O  0.02770909  0.07175842  0.85014715    -0.84180
Zr220      Zr  0.06518228  0.02913563  0.90459920     2.84310
O221        O  0.06170917  0.45435958  0.92840540    -1.06150
O222        O  0.02003302  0.07326988  0.94948346    -1.06880
C223        C  0.48839540  0.08590818  0.84342377     1.08550
C224        C  0.16821868  0.47922680  0.92584144     1.08490
C225        C  0.09972443  0.13125782  0.94738416     1.11470
C226        C  0.03842853  0.44976442  0.82607827     1.09250
H227        H  0.11926555  0.03456693  0.97837226     0.34810
O228        O  0.08941643  0.02427782  0.97708329    -1.27100
H229        H  0.48145790  0.50658110  0.87512405     0.34480
O230        O  0.99309629  0.50525589  0.90419384    -1.28780
O231        O  0.07634299  0.42077577  0.57675893    -0.84550
O232        O  0.38131634  0.05207294  0.99440449    -0.86050
O233        O  0.11406060  0.04951758  0.55932952    -0.84630
O234        O  0.02944199  0.36254744  0.93290170    -0.84680
O235        O  0.41671797  0.45127098  0.89237231    -0.84390
O236        O  0.00131673  0.13690928  0.51713224    -0.84200
O237        O  0.47050863  0.01639293  0.61084854    -0.84570
O238        O  0.43294603  0.39787633  0.53434480    -0.84030
O239        O  0.02061901  0.07047486  0.59770780    -0.85100
O240        O  0.44328753  0.37830434  0.96315860    -0.84250
O241        O  0.13555367  0.48096901  0.54808000    -0.84650
O242        O  0.44883130  0.12754755  0.96654518    -0.84370
O243        O  0.39206002  0.52111679  0.90878513    -0.84020
O244        O  0.08601558  0.37455452  0.98014193    -0.84430
O245        O  0.00460031  0.43221922  0.59927216    -0.84730
O246        O  0.39086675  0.49817749  0.54879187    -0.86070
Zr247      Zr  0.08451954  0.45025956  0.00141281     2.83100
Zr248      Zr  0.44870102  0.05155403  0.94724594     2.83500
Zr249      Zr  0.04373359  0.06701861  0.52160402     2.84090
Zr250      Zr  0.98766951  0.43267540  0.92756202     2.83360
Zr251      Zr  0.46660433  0.47216651  0.54450620     2.84220
O252        O  0.44231852  0.47818149  0.97262662    -1.06640
O253        O  0.03880023  0.49506656  0.54447108    -1.06140
C254        C  0.04453567  0.41939833  0.60571624     1.08520
C255        C  0.36361868  0.01851502  0.51982441     1.11140
C256        C  0.14271796  0.01718211  0.56086622     1.08690
C257        C  0.06321431  0.34964510  0.95573208     1.09050
C258        C  0.38853227  0.48394115  0.89071662     1.08640
C259        C  0.47026659  0.15183647  0.99264578     1.08190
C260        C  0.99377103  0.04958243  0.62330302     1.08610
C261        C  0.42999108  0.37035558  0.50198632     1.08130
H262        H  0.45127233  0.06361054  0.53750872     0.34810
O263        O  0.46998094  0.04508397  0.51936734    -1.27740
H264        H  0.01135362  0.39801112  0.51136101     0.34830
O265        O  0.01171913  0.42740361  0.00029881    -1.29120
C266        C  0.26272017  0.00870946  0.60122692    -0.00560
O267        O  0.16208366  0.17077483  0.78348173    -0.84560
O268        O  0.24936111  0.29617169  0.58522769    -0.84730
O269        O  0.12695726  0.26567583  0.68090151    -0.86390
O270        O  0.21478607  0.15484746  0.63764838    -0.85150
O271        O  0.28434642  0.13017090  0.65651087    -0.84740
O272        O  0.13892258  0.32063355  0.72939008    -0.86110
O273        O  0.19453024  0.24678164  0.59952745    -0.84590
O274        O  0.14203373  0.18094617  0.71136978    -0.84180
Zr275      Zr  0.19759146  0.22411266  0.67586676     2.84310
O276        O  0.27081215  0.22930645  0.65378609    -1.06150
O277        O  0.19207624  0.24765237  0.74835207    -1.06880
C278        C  0.13459698  0.16742180  0.75100858     1.08550
C279        C  0.21603842  0.27280266  0.57357784     1.08490
C280        C  0.11391736  0.29863085  0.70444595     1.11470
C281        C  0.24770894  0.12694119  0.63699411     1.09250
H282        H  0.20071567  0.31606092  0.65811311     0.34810
O283        O  0.21954032  0.29771109  0.67651640    -1.27100
H284        H  0.23163144  0.14887016  0.72142564     0.34480
O285        O  0.24149786  0.17881411  0.72180604    -1.28780
O286        O  0.36816240  0.33571339  0.66356419    -0.84550
O287        O  0.28228287  0.20844549  0.86164108    -0.86050
O288        O  0.21928582  0.38950883  0.70522301    -0.84630
O289        O  0.34495081  0.19137825  0.62279510    -0.84680
O290        O  0.31655680  0.11851472  0.74764822    -0.84390
O291        O  0.18257805  0.31204114  0.82472796    -0.84200
O292        O  0.31688582  0.35040831  0.80771191    -0.84570
O293        O  0.40408943  0.23811096  0.76539497    -0.84030
O294        O  0.24633030  0.37416047  0.79135118    -0.85100
O295        O  0.39157613  0.18283841  0.71742044    -0.84250
O296        O  0.27070868  0.37833697  0.65041400    -0.84650
O297        O  0.19355118  0.24031537  0.84729682    -0.84370
O298        O  0.26237717  0.12755298  0.80034213    -0.84020
O299        O  0.33420634  0.26285060  0.59936684    -0.84430
O300        O  0.38807831  0.32514186  0.73569510    -0.84730
O301        O  0.33827981  0.25651355  0.84700235    -0.86070
Zr302      Zr  0.29378900  0.30203908  0.65370213     2.83100
Zr303      Zr  0.23678851  0.20316305  0.79384631     2.83500
Zr304      Zr  0.21500879  0.32001027  0.74945683     2.84090
Zr305      Zr  0.31520763  0.18452567  0.69869325     2.83360
Zr306      Zr  0.33367362  0.28041951  0.77091129     2.84220
O307        O  0.31090608  0.20734365  0.77116137    -1.06640
O308        O  0.28856926  0.32533163  0.72610515    -1.06140
C309        C  0.39554367  0.33900470  0.69617666     1.08520
C310        C  0.31653106  0.23063820  0.87296848     1.11140
C311        C  0.24327672  0.40287787  0.67202980     1.08690
C312        C  0.34684354  0.22290701  0.59354153     1.09050
C313        C  0.29318302  0.10500134  0.78110769     1.08640
C314        C  0.18043843  0.28000415  0.85355227     1.08190
C315        C  0.28366853  0.37788221  0.80933219     1.08610
C316        C  0.41683385  0.20481073  0.74210102     1.08130
H317        H  0.26017897  0.28673838  0.82380166     0.34810
O318        O  0.26067114  0.27585781  0.79422249    -1.27740
H319        H  0.36839734  0.25708042  0.68701319     0.34830
O320        O  0.33857630  0.25671953  0.69838021    -1.29120
C321        C  0.14239968  0.25031196  0.97217568    -0.00560
C322        C  0.01510964  0.37830120  0.72297915    -0.00560
C323        C  0.38992384  0.25123256  0.97601956    -0.00560
C324        C  0.27026524  0.49553119  0.84640081    -0.00560
C325        C  0.16260535  0.28786853  0.89802047    -0.14500
C326        C  0.16969791  0.25699370  0.93037184    -0.29680
H327        H  0.14242586  0.31710021  0.90275395     0.14520
H328        H  0.19400376  0.23088958  0.92462164     0.15090
C329        C  0.19921647  0.27623806  0.52748450    -0.14500
C330        C  0.17241772  0.24482214  0.51190224    -0.29680
H331        H  0.20510548  0.30593692  0.50812770     0.14520
H332        H  0.16913752  0.21483039  0.53164428     0.15090
C333        C  0.33377023  0.22605330  0.91881703    -0.14500
C334        C  0.36090510  0.25679763  0.93498749    -0.29680
H335        H  0.32713021  0.19633984  0.93788177     0.14520
H336        H  0.36486587  0.28691254  0.91557699     0.15090
C337        C  0.36532605  0.21408835  0.54955594    -0.14500
C338        C  0.35981725  0.24464373  0.51681345    -0.29680
H339        H  0.38559655  0.18475719  0.54578109     0.14520
H340        H  0.33554642  0.27101908  0.52145223     0.15090
C341        C  0.27461280  0.45632862  0.81704739    -0.14500
C342        C  0.28634029  0.41676266  0.83472100    -0.29680
H343        H  0.26738007  0.45983650  0.78215816     0.14520
H344        H  0.29460757  0.41265082  0.86925457     0.15090
C345        C  0.27036436  0.03333858  0.81132771    -0.14500
C346        C  0.30325353  0.06132471  0.80118389    -0.29680
H347        H  0.23871648  0.03998711  0.79574981     0.14520
H348        H  0.33655728  0.05550493  0.81263590     0.15090
C349        C  0.47212224  0.35313200  0.71964181    -0.14500
C350        C  0.43958114  0.35937464  0.68913134    -0.29680
H351        H  0.46589165  0.33071357  0.74721373     0.14520
H352        H  0.44437601  0.38023117  0.66022845     0.15090
C353        C  0.06748280  0.31473235  0.70213535    -0.14500
C354        C  0.05341920  0.34595246  0.73052697    -0.29680
H355        H  0.04778201  0.30673924  0.67389990     0.14520
H356        H  0.07303490  0.35103630  0.75964434     0.15090
C357        C  0.23862936  0.44938866  0.65587086    -0.14500
C358        C  0.26873999  0.46640724  0.62712928    -0.29680
H359        H  0.20886424  0.46801314  0.66415082     0.14520
H360        H  0.29866326  0.44695478  0.62119428     0.15090
C361        C  0.24526028  0.08767464  0.61188141    -0.14500
C362        C  0.25832590  0.04852331  0.62979393    -0.29680
H363        H  0.23556677  0.09104598  0.57767095     0.14520
H364        H  0.26657163  0.04571723  0.66449294     0.15090
C365        C  0.02186409  0.40732050  0.68232114    -0.14500
C366        C  0.05288931  0.40141073  0.65015309    -0.29680
H367        H  0.99571355  0.43177193  0.67701380     0.14520
H368        H  0.08221439  0.38115166  0.65474749     0.15090
C369        C  0.04238866  0.43303348  0.78017671    -0.14500
C370        C  0.01061728  0.40709770  0.76392703    -0.29680
H371        H  0.07231383  0.43897404  0.76118938     0.14520
H372        H  0.98039390  0.40385819  0.78331956     0.15090
C373        C  0.22547317  0.48987372  0.86931296    -0.14500
C374        C  0.21553208  0.47763425  0.91123274    -0.29680
H375        H  0.19787448  0.49494093  0.84705004     0.14520
H376        H  0.23222046  0.94462945  0.91397476     0.15090
C377        C  0.30997643  0.49762441  0.87638319    -0.14500
C378        C  0.34973657  0.47988013  0.86444134    -0.29680
H379        H  0.30672946  0.51614894  0.90652778     0.14520
H380        H  0.35501645  0.46321099  0.83355152     0.15090
C381        C  0.18206119  0.02174367  0.58638083    -0.14500
C382        C  0.22197447  0.00538268  0.57277202    -0.29680
H383        H  0.17749751  0.03826734  0.61745894     0.14520
H384        H  0.22470377  0.98733614  0.54230420     0.15090
C385        C  0.30689467  0.01470865  0.57724992    -0.14500
C386        C  0.31629125  0.02049843  0.53404661    -0.29680
H387        H  0.33483123  0.01379763  0.59950400     0.14520
H388        H  0.31700991  0.57236204  0.55692017     0.15090
C389        C  0.45376032  0.19800464  0.99581942    -0.14500
C390        C  0.42184539  0.21265328  0.96804205    -0.29680
H391        H  0.46048729  0.21515165  0.52534955     0.14520
H392        H  0.41596939  0.19352959  0.93889866     0.15090
C393        C  0.40949630  0.32639369  0.50937732    -0.14500
C394        C  0.41545742  0.29346673  0.47948961    -0.29680
H395        H  0.38848212  0.32205088  0.53818189     0.14520
H396        H  0.43829690  0.30025281  0.95231195     0.15090
C397        C  0.12028803  0.17508703  0.93971799    -0.14500
C398        C  0.11624167  0.20744461  0.97030504    -0.29680
H399        H  0.13981859  0.17981222  0.90994569     0.14520
H400        H  0.09523680  0.20136670  0.99895558     0.15090
C401        C  0.11092741  0.28888315  0.98079780    -0.14500
C402        C  0.07875786  0.30329439  0.95337769    -0.29680
H403        H  0.11757094  0.30838624  0.00950400     0.14520
H404        H  0.06930636  0.28369850  0.92565966     0.15090
C405        C  0.98934777  0.06711606  0.66909539    -0.14500
C406        C  0.02043354  0.09427999  0.68494969    -0.29680
H407        H  0.95947428  0.06095613  0.68808593     0.14520
H408        H  0.55044229  0.09810127  0.66487465     0.15090
C409        C  0.00965892  0.09607497  0.76683361    -0.14500
C410        C  0.47960856  0.10398498  0.79918811    -0.29680
H411        H  0.03600654  0.07186465  0.77227897     0.14520
H412        H  0.45074363  0.12500450  0.79524622     0.15090
C413        C  0.47674716  0.15613836  0.71673276    -0.14500
C414        C  0.46321258  0.18850803  0.74413904    -0.29680
H415        H  0.45660717  0.14974209  0.68829084     0.14520
H416        H  0.48349566  0.19760946  0.77158050     0.15090
C417        C  0.05849169  0.15028492  0.72751054    -0.14500
C418        C  0.09086226  0.14648175  0.75847031    -0.29680
H419        H  0.06438262  0.17148928  0.69892356     0.14520
H420        H  0.08623767  0.12691495  0.78828875     0.15090
C421        C  0.51710551  0.62373336  0.22609806    -0.00560
O422        O  0.45724405  0.58412730  0.37376341    -0.84560
O423        O  0.15351979  0.95423367  0.45403289    -0.84730
O424        O  0.09713069  0.60367832  0.41460209    -0.86390
O425        O  0.06092451  0.98315255  0.33610807    -0.85150
O426        O  0.01259095  0.92742409  0.35056073    -0.84740
O427        O  0.08716279  0.62355337  0.48657331    -0.86110
O428        O  0.14186873  0.00580691  0.39923391    -0.84590
O429        O  0.02795006  0.57180110  0.35050137    -0.84180
Zr430      Zr  0.06542284  0.52896997  0.40480732     2.84310
O431        O  0.06148245  0.95469440  0.42655250    -1.06150
O432        O  0.02048880  0.57352130  0.44949997    -1.06880
C433        C  0.48919526  0.58584062  0.34497381     1.08550
C434        C  0.16657649  0.97799876  0.42055270     1.08490
C435        C  0.10045814  0.63107656  0.44688757     1.11470
C436        C  0.03872239  0.94899978  0.32475456     1.09250
H437        H  0.11953468  0.53439960  0.47853457     0.34810
O438        O  0.08960842  0.52431762  0.47729531    -1.27100
H439        H  0.48199682  0.00536743  0.37225254     0.34480
O440        O  0.99238577  0.00486787  0.40249653    -1.28780
O441        O  0.07761224  0.91958406  0.07569367    -0.84550
O442        O  0.38210015  0.55228667  0.49572965    -0.86050
O443        O  0.11296487  0.55042314  0.06369446    -0.84630
O444        O  0.02988684  0.86215110  0.43151400    -0.84680
O445        O  0.41842798  0.94865262  0.38635874    -0.84390
O446        O  0.00315327  0.63787067  0.01785299    -0.84200
O447        O  0.47167450  0.51599719  0.11347550    -0.84570
O448        O  0.43230423  0.89840317  0.03319770    -0.84030
O449        O  0.02053681  0.57066498  0.09864829    -0.85100
O450        O  0.44382657  0.87738836  0.46106619    -0.84250
O451        O  0.13566673  0.98068534  0.04772698    -0.84650
O452        O  0.44977885  0.62715046  0.46741021    -0.84370
O453        O  0.39545993  0.01960761  0.40014038    -0.84020
O454        O  0.08621140  0.87438051  0.47893705    -0.84430
O455        O  0.00601598  0.93112858  0.09865820    -0.84730
O456        O  0.39027173  0.99791604  0.04737584    -0.86070
Zr457      Zr  0.08476452  0.95033573  0.49929195     2.83100
Zr458      Zr  0.44925425  0.55118820  0.44855125     2.83500
Zr459      Zr  0.04467407  0.56750657  0.02298523     2.84090
Zr460      Zr  0.98783087  0.93219547  0.42610042     2.83360
Zr461      Zr  0.46609706  0.97229738  0.04303073     2.84220
O462        O  0.44279610  0.97644480  0.47001510    -1.06640
O463        O  0.03903174  0.99433852  0.04429391    -1.06140
C464        C  0.04596421  0.91806998  0.10477876     1.08520
C465        C  0.36779771  0.52844383  0.02970358     1.11140
C466        C  0.13925355  0.51647524  0.06777137     1.08690
C467        C  0.06363313  0.84935772  0.45445734     1.09050
C468        C  0.39142969  0.98218905  0.38271041     1.08640
C469        C  0.47121492  0.65175091  0.49318052     1.08190
C470        C  0.99416967  0.54929791  0.12433356     1.08610
C471        C  0.42932821  0.87104612  0.00080185     1.08130
H472        H  0.45338332  0.56502845  0.04059234     0.34810
O473        O  0.47138609  0.54616674  0.02215543    -1.27740
H474        H  0.01231583  0.89737967  0.01089891     0.34830
O475        O  0.01201631  0.92727462  0.49883515    -1.29120
C476        C  0.26137328  0.50530089  0.09810898    -0.00560
O477        O  0.16362545  0.66857971  0.28257706    -0.84560
O478        O  0.25076020  0.79484656  0.08450261    -0.84730
O479        O  0.12847984  0.76327832  0.17974280    -0.86390
O480        O  0.21645297  0.65293709  0.13506748    -0.85150
O481        O  0.28627164  0.62839777  0.15304335    -0.84740
O482        O  0.14048062  0.81814583  0.22833789    -0.86110
O483        O  0.19609828  0.74516669  0.09834218    -0.84590
O484        O  0.14374992  0.67841805  0.21036953    -0.84180
Zr485      Zr  0.19915707  0.72164733  0.17451707     2.84310
O486        O  0.27240439  0.72717480  0.15280090    -1.06150
O487        O  0.19370489  0.74511240  0.24707292    -1.06880
C488        C  0.13620549  0.66524415  0.25012639     1.08550
C489        C  0.21748103  0.77155971  0.07264615     1.08490
C490        C  0.11547736  0.79625084  0.20332423     1.11470
C491        C  0.24953126  0.62521891  0.13348984     1.09250
H492        H  0.20208672  0.81377050  0.15732228     0.34810
O493        O  0.22090667  0.79535317  0.17565788    -1.27100
H494        H  0.23326352  0.64615938  0.21968675     0.34480
O495        O  0.24303405  0.67612185  0.22038982    -1.28780
O496        O  0.36937362  0.83348672  0.16279360    -0.84550
O497        O  0.28349984  0.70569299  0.36059197    -0.86050
O498        O  0.22096753  0.88740716  0.20492691    -0.84630
O499        O  0.34696178  0.68969230  0.12147903    -0.84680
O500        O  0.31766565  0.61568222  0.24639700    -0.84390
O501        O  0.18289053  0.80933990  0.32301289    -0.84200
O502        O  0.31760818  0.84705923  0.30916043    -0.84570
O503        O  0.40505813  0.73646397  0.26520247    -0.84030
O504        O  0.24617636  0.86921263  0.29508786    -0.85100
O505        O  0.39304391  0.68113559  0.21708166    -0.84250
O506        O  0.27197004  0.87641276  0.14971274    -0.84650
O507        O  0.19504750  0.73798088  0.34626051    -0.84370
O508        O  0.26365525  0.62498223  0.29923270    -0.84020
O509        O  0.33547043  0.76119526  0.09842649    -0.84430
O510        O  0.38928448  0.82295406  0.23492384    -0.84730
O511        O  0.33943963  0.75376400  0.34589524    -0.86070
Zr512      Zr  0.29508710  0.80002997  0.15302361     2.83100
Zr513      Zr  0.23825360  0.70054245  0.29262655     2.83500
Zr514      Zr  0.21643093  0.81758890  0.24862024     2.84090
Zr515      Zr  0.31677419  0.68192511  0.19730104     2.83360
Zr516      Zr  0.33469709  0.77823893  0.27011995     2.84220
O517        O  0.31228696  0.70495355  0.26982173    -1.06640
O518        O  0.28997226  0.82372786  0.22542396    -1.06140
C519        C  0.39674385  0.83676191  0.19536781     1.08520
C520        C  0.31770438  0.72795145  0.37189115     1.11140
C521        C  0.24465462  0.90089359  0.17156052     1.08690
C522        C  0.34853466  0.72142519  0.09236884     1.09050
C523        C  0.29433473  0.60228638  0.28000625     1.08640
C524        C  0.18118755  0.77755950  0.35205398     1.08190
C525        C  0.28369325  0.87351244  0.31271904     1.08610
C526        C  0.41802101  0.70328242  0.24197117     1.08130
H527        H  0.26116528  0.78379240  0.32286979     0.34810
O528        O  0.26184266  0.77317694  0.29319701    -1.27740
H529        H  0.36954807  0.75492935  0.18627778     0.34830
O530        O  0.33970623  0.75440818  0.19756892    -1.29120
C531        C  0.14327955  0.75006601  0.47103321    -0.00560
C532        C  0.01690377  0.87638950  0.22179584    -0.00560
C533        C  0.39066898  0.75027725  0.47468750    -0.00560
C534        C  0.27126441  0.99439980  0.34587269    -0.00560
C535        C  0.16300349  0.78594354  0.39620149    -0.14500
C536        C  0.17067591  0.75610477  0.42925162    -0.29680
H537        H  0.14227850  0.81491070  0.40020106     0.14520
H538        H  0.19528185  0.73014942  0.42404735     0.15090
C539        C  0.20055536  0.77561236  0.02662631    -0.14500
C540        C  0.17374106  0.74440828  0.01074673    -0.29680
H541        H  0.20638576  0.80554436  0.00762339     0.14520
H542        H  0.17058674  0.71420286  0.03018294     0.15090
C543        C  0.33488742  0.72379107  0.41776179    -0.14500
C544        C  0.36165201  0.75502239  0.43363474    -0.29680
H545        H  0.32853487  0.69415373  0.43705426     0.14520
H546        H  0.36526288  0.78502194  0.41396364     0.15090
C547        C  0.36719377  0.71320618  0.04826622    -0.14500
C548        C  0.36147913  0.74407785  0.01577513    -0.29680
H549        H  0.38786394  0.68417286  0.04425554     0.14520
H550        H  0.33675446  0.77000417  0.02052993     0.15090
C551        C  0.26669811  0.95054864  0.32391690    -0.14500
C552        C  0.28699382  0.91286020  0.33814305    -0.29680
H553        H  0.24642942  0.95017075  0.29462312     0.14520
H554        H  0.30659615  0.91083573  0.36771850     0.15090
C555        C  0.27093826  0.53142336  0.31181342    -0.14500
C556        C  0.30418057  0.55860136  0.30038885    -0.29680
H557        H  0.23910541  0.53846195  0.29676042     0.14520
H558        H  0.33765709  0.55224579  0.31109206     0.15090
C559        C  0.47344094  0.85117974  0.21831554    -0.14500
C560        C  0.44066395  0.85716851  0.18806483    -0.29680
H561        H  0.46755011  0.82879831  0.24599570     0.14520
H562        H  0.44516227  0.87792722  0.15904484     0.15090
C563        C  0.06911657  0.81261757  0.20098283    -0.14500
C564        C  0.05520056  0.84401056  0.22930888    -0.29680
H565        H  0.04933854  0.80460283  0.17280998     0.14520
H566        H  0.07485636  0.84918620  0.25838098     0.15090
C567        C  0.23967007  0.94747018  0.15553409    -0.14500
C568        C  0.26931868  0.96478986  0.12648097    -0.29680
H569        H  0.20996511  0.96598491  0.16427509     0.14520
H570        H  0.29918318  0.94543109  0.11999327     0.15090
C571        C  0.24643807  0.58588134  0.10788571    -0.14500
C572        C  0.26282715  0.54719854  0.12406674    -0.29680
H573        H  0.23113683  0.58836707  0.07579125     0.14520
H574        H  0.27594816  0.54541526  0.15723167     0.15090
C575        C  0.02380876  0.90566308  0.18139573    -0.14500
C576        C  0.05452564  0.89963224  0.14899047    -0.29680
H577        H  0.99782001  0.93035189  0.17638892     0.14520
H578        H  0.08361819  0.87894250  0.15319667     0.15090
C579        C  0.04332043  0.93170840  0.27906233    -0.14500
C580        C  0.01211992  0.90500908  0.26289643    -0.29680
H581        H  0.07313890  0.93815031  0.26008187     0.14520
H582        H  0.98193994  0.90131842  0.28226194     0.15090
C583        C  0.23010965  0.00218993  0.37480590    -0.14500
C584        C  0.21294886  0.97269334  0.40404188    -0.29680
H585        H  0.21074704  0.03201883  0.36811958     0.14520
H586        H  0.23205898  0.44369000  0.41511167     0.15090
C587        C  0.31309875  0.99509168  0.37262117    -0.14500
C588        C  0.35209826  0.97922548  0.35670184    -0.29680
H589        H  0.31109070  0.00740352  0.40599143     0.14520
H590        H  0.35498105  0.96499598  0.32426463     0.15090
C591        C  0.17922580  0.51977720  0.09267852    -0.14500
C592        C  0.21693399  0.50084074  0.07689654    -0.29680
H593        H  0.17795589  0.53861841  0.12261840     0.14520
H594        H  0.21610965  0.48222600  0.04668290     0.15090
C595        C  0.29759370  0.50425864  0.06210665    -0.14500
C596        C  0.32372375  0.53777675  0.04914942    -0.29680
H597        H  0.30549280  0.47213038  0.04855969     0.14520
H598        H  0.31590771  0.07172094  0.05561979     0.15090
C599        C  0.45472874  0.69792229  0.49553646    -0.14500
C600        C  0.42291520  0.71193262  0.46735269    -0.29680
H601        H  0.46264511  0.71751953  0.02533102     0.14520
H602        H  0.41737694  0.69242897  0.43839068     0.15090
C603        C  0.40925341  0.82705981  0.00833367    -0.14500
C604        C  0.41650394  0.79403246  0.97895891    -0.29680
H605        H  0.38769200  0.82271574  0.03673272     0.14520
H606        H  0.43837219  0.79946608  0.44999423     0.15090
C607        C  0.12105153  0.67479646  0.43899924    -0.14500
C608        C  0.11704250  0.70728202  0.46945169    -0.29680
H609        H  0.14056492  0.67933791  0.40918593     0.14520
H610        H  0.09601705  0.70141039  0.49812861     0.15090
C611        C  0.11194595  0.78888397  0.47933408    -0.14500
C612        C  0.07945014  0.80304746  0.45214471    -0.29680
H613        H  0.11882941  0.80865359  0.50778671     0.14520
H614        H  0.06972934  0.78320946  0.42470315     0.15090
C615        C  0.99007692  0.56649116  0.17008923    -0.14500
C616        C  0.02156689  0.59319561  0.18571665    -0.29680
H617        H  0.96006292  0.56087137  0.18903554     0.14520
H618        H  0.55237714  0.59633249  0.16702934     0.15090
C619        C  0.01032554  0.59607647  0.26725541    -0.14500
C620        C  0.48085463  0.60388274  0.30062500    -0.29680
H621        H  0.03628036  0.57148452  0.27288307     0.14520
H622        H  0.45176139  0.62448454  0.29620164     0.15090
C623        C  0.47833545  0.65506333  0.21742247    -0.14500
C624        C  0.46442179  0.68747056  0.24443843    -0.29680
H625        H  0.45846979  0.64830939  0.18887782     0.14520
H626        H  0.48442539  0.69693295  0.27195871     0.15090
C627        C  0.05976899  0.64937203  0.22737801    -0.14500
C628        C  0.09236242  0.64487579  0.25792424    -0.29680
H629        H  0.06570077  0.67055180  0.19877375     0.14520
H630        H  0.08779327  0.62522433  0.28769448     0.15090
C631        C  0.51777915  0.62393656  0.72621758    -0.00560
O632        O  0.45691782  0.58419451  0.87394621    -0.84560
O633        O  0.15403670  0.95532306  0.95547283    -0.84730
O634        O  0.09777045  0.60298409  0.91498218    -0.86390
O635        O  0.06106082  0.98371568  0.83697793    -0.85150
O636        O  0.01238961  0.92817368  0.85104005    -0.84740
O637        O  0.08788222  0.62302138  0.98693934    -0.86110
O638        O  0.14177302  0.00620268  0.90014494    -0.84590
O639        O  0.02937626  0.57133379  0.85072927    -0.84180
Zr640      Zr  0.06613859  0.52827815  0.90542164     2.84310
O641        O  0.06174705  0.95511729  0.92744820    -1.06150
O642        O  0.02160566  0.57313732  0.95011921    -1.06880
C643        C  0.48895672  0.58593925  0.84516138     1.08550
C644        C  0.16677862  0.97884784  0.92166894     1.08490
C645        C  0.10106132  0.63048321  0.94717241     1.11470
C646        C  0.03870280  0.94976117  0.82538559     1.09250
H647        H  0.12001939  0.53384881  0.97956210     0.34810
O648        O  0.09013846  0.52371733  0.97799863    -1.27100
H649        H  0.48218582  0.00674293  0.87324276     0.34480
O650        O  0.99237545  0.00498766  0.90313799    -1.28780
O651        O  0.07736423  0.92094589  0.57546541    -0.84550
O652        O  0.38165590  0.55240857  0.99676799    -0.86050
O653        O  0.11247552  0.55169900  0.56252960    -0.84630
O654        O  0.03053588  0.86251858  0.93175592    -0.84680
O655        O  0.41837214  0.95133236  0.88667691    -0.84390
O656        O  0.00224795  0.63836620  0.51667834    -0.84200
O657        O  0.47223606  0.51633417  0.61296990    -0.84570
O658        O  0.43349031  0.89684110  0.53317322    -0.84030
O659        O  0.02064900  0.57152884  0.59819153    -0.85100
O660        O  0.44322207  0.87855870  0.96128836    -0.84250
O661        O  0.13982641  0.98022976  0.54222648    -0.84650
O662        O  0.44935965  0.62756522  0.96855230    -0.84370
O663        O  0.39444052  0.02128270  0.90360076    -0.84020
O664        O  0.08684572  0.87462236  0.97925480    -0.84430
O665        O  0.00557577  0.93162814  0.59831687    -0.84730
O666        O  0.38914015  0.99343584  0.54350144    -0.86070
Zr667      Zr  0.08487605  0.95057041  0.00018788     2.83100
Zr668      Zr  0.44866006  0.55168742  0.94921640     2.83500
Zr669      Zr  0.04384771  0.56809430  0.52225955     2.84090
Zr670      Zr  0.98823724  0.93235717  0.92694591     2.83360
Zr671      Zr  0.46627952  0.97125436  0.54269463     2.84220
O672        O  0.44213598  0.97800429  0.97042286    -1.06640
O673        O  0.03916407  0.99403157  0.54390429    -1.06140
C674        C  0.04571418  0.91921244  0.60455450     1.08520
C675        C  0.36830337  0.52878567  0.52900362     1.11140
C676        C  0.13944162  0.51823018  0.56598989     1.08690
C677        C  0.06433578  0.84968749  0.95457271     1.09050
C678        C  0.39092473  0.98462661  0.88449540     1.08640
C679        C  0.47093434  0.65198839  0.99439034     1.08190
C680        C  0.99453119  0.55008429  0.62405586     1.08610
C681        C  0.43026746  0.86967357  0.50063898     1.08130
H682        H  0.45378362  0.56497785  0.53984766     0.34810
O683        O  0.47186718  0.54608242  0.52151988    -1.27740
H684        H  0.01174292  0.89748102  0.51019681     0.34830
O685        O  0.01236642  0.92721316  0.99963812    -1.29120
C686        C  0.26138946  0.50706444  0.59725102    -0.00560
O687        O  0.16517174  0.67000149  0.78215720    -0.84560
O688        O  0.25169270  0.79604860  0.58390557    -0.84730
O689        O  0.12967763  0.76514864  0.67952750    -0.86390
O690        O  0.21720059  0.65475789  0.63441823    -0.85150
O691        O  0.28738516  0.63057004  0.65134994    -0.84740
O692        O  0.14157692  0.81957731  0.72862497    -0.86110
O693        O  0.19676583  0.74679844  0.59821611    -0.84590
O694        O  0.14497514  0.67985827  0.71003806    -0.84180
Zr695      Zr  0.20021590  0.72328710  0.67425203     2.84310
O696        O  0.27342305  0.72859835  0.65221962    -1.06150
O697        O  0.19484524  0.74646877  0.74692711    -1.06880
C698        C  0.13762685  0.66656953  0.74978676     1.08550
C699        C  0.21817125  0.77291637  0.57229861     1.08490
C700        C  0.11663371  0.79795550  0.70331396     1.11470
C701        C  0.25041404  0.62725576  0.63225197     1.09250
H702        H  0.20323714  0.81517395  0.65730982     0.34810
O703        O  0.22213483  0.79679099  0.67560203    -1.27100
H704        H  0.23423211  0.64798464  0.71906196     0.34480
O705        O  0.24419061  0.67787552  0.71994479    -1.28780
O706        O  0.37049181  0.83507099  0.66211192    -0.84550
O707        O  0.28510109  0.70706917  0.86010897    -0.86050
O708        O  0.22019250  0.88802729  0.70467610    -0.84630
O709        O  0.34828698  0.69075381  0.62128730    -0.84680
O710        O  0.31588415  0.61485851  0.74230037    -0.84390
O711        O  0.18425599  0.81021752  0.82326148    -0.84200
O712        O  0.31907449  0.84892928  0.80835962    -0.84570
O713        O  0.40638488  0.73771072  0.76486000    -0.84030
O714        O  0.24772263  0.87121036  0.79413959    -0.85100
O715        O  0.39394377  0.68199626  0.71729136    -0.84250
O716        O  0.27110032  0.87729866  0.64928224    -0.84650
O717        O  0.19658845  0.73881588  0.84616895    -0.84370
O718        O  0.26513162  0.62672085  0.79752579    -0.84020
O719        O  0.33643347  0.76209656  0.59789537    -0.84430
O720        O  0.39052954  0.82440141  0.73420511    -0.84730
O721        O  0.34086839  0.75543991  0.84575751    -0.86070
Zr722      Zr  0.29617745  0.80141412  0.65248130     2.83100
Zr723      Zr  0.23984633  0.70215159  0.79219760     2.83500
Zr724      Zr  0.21760460  0.81879325  0.74870453     2.84090
Zr725      Zr  0.31783007  0.68331291  0.69670028     2.83360
Zr726      Zr  0.33611461  0.77972593  0.76973114     2.84220
O727        O  0.31385985  0.70630603  0.76932991    -1.06640
O728        O  0.29111078  0.82498986  0.72502867    -1.06140
C729        C  0.39794000  0.83826301  0.69465726     1.08520
C730        C  0.31916517  0.72940833  0.87161350     1.11140
C731        C  0.24333023  0.90145165  0.67102561     1.08690
C732        C  0.34962319  0.72229179  0.59205490     1.09050
C733        C  0.29288221  0.60213924  0.77635713     1.08640
C734        C  0.18255796  0.77828052  0.85216076     1.08190
C735        C  0.28525183  0.87556473  0.81174406     1.08610
C736        C  0.41909950  0.70419337  0.74196515     1.08130
H737        H  0.26267032  0.78534267  0.82282555     0.34810
O738        O  0.26334948  0.77473212  0.79314474    -1.27740
H739        H  0.37071624  0.75627195  0.68581190     0.34830
O740        O  0.34086508  0.75582113  0.69709925    -1.29120
C741        C  0.14335295  0.74972229  0.97071057    -0.00560
C742        C  0.01753720  0.87774052  0.72181106    -0.00560
C743        C  0.39103467  0.75099783  0.97554744    -0.00560
C744        C  0.27107976  0.99623343  0.84660487    -0.00560
C745        C  0.16401842  0.78622328  0.89629993    -0.14500
C746        C  0.17099057  0.75581992  0.92903945    -0.29680
H747        H  0.14353773  0.81533130  0.90050034     0.14520
H748        H  0.19537782  0.72969038  0.92373890     0.15090
C749        C  0.20089111  0.77667297  0.52635523    -0.14500
C750        C  0.17394999  0.74527669  0.51093244    -0.29680
H751        H  0.20656746  0.80646716  0.50708206     0.14520
H752        H  0.17100020  0.71520617  0.53061286     0.15090
C753        C  0.33606735  0.72494382  0.91760061    -0.14500
C754        C  0.36255535  0.75605244  0.93408792    -0.29680
H755        H  0.32954081  0.69517475  0.93661813     0.14520
H756        H  0.36638141  0.78616812  0.91464333     0.15090
C757        C  0.36799135  0.71356218  0.54803791    -0.14500
C758        C  0.36150983  0.74371484  0.51514453    -0.29680
H759        H  0.38891322  0.68466520  0.54430999     0.14520
H760        H  0.33668890  0.76958416  0.51979208     0.15090
C761        C  0.26708786  0.95244128  0.82420186    -0.14500
C762        C  0.28860497  0.91495107  0.83727341    -0.29680
H763        H  0.24573974  0.95192018  0.79570462     0.14520
H764        H  0.30891392  0.91286325  0.86634344     0.15090
C765        C  0.26687346  0.53906496  0.82065164    -0.14500
C766        C  0.29804632  0.55606061  0.79331692    -0.29680
H767        H  0.23739597  0.55919116  0.82668829     0.14520
H768        H  0.32735653  0.53683011  0.78477248     0.15090
C769        C  0.47466715  0.85226123  0.71770181    -0.14500
C770        C  0.44194331  0.85859471  0.68743275    -0.29680
H771        H  0.46865253  0.82968266  0.74519375     0.14520
H772        H  0.44653590  0.87957491  0.65858648     0.15090
C773        C  0.07028144  0.81437336  0.70087589    -0.14500
C774        C  0.05620655  0.84572092  0.72918492    -0.29680
H775        H  0.05050934  0.80622927  0.67274038     0.14520
H776        H  0.07589561  0.85106200  0.75819519     0.15090
C777        C  0.23754259  0.94777092  0.65498805    -0.14500
C778        C  0.26798963  0.96565054  0.62751961    -0.29680
H779        H  0.20781591  0.96623478  0.66376294     0.14520
H780        H  0.29791043  0.94624039  0.62125037     0.15090
C781        C  0.24712222  0.58789954  0.60664570    -0.14500
C782        C  0.26303321  0.54910341  0.62302953    -0.29680
H783        H  0.23199263  0.59044672  0.57447404     0.14520
H784        H  0.27595427  0.54734645  0.65627596     0.15090
C785        C  0.02410114  0.90721683  0.68145103    -0.14500
C786        C  0.05463710  0.90124937  0.64888084    -0.29680
H787        H  0.99792065  0.93170506  0.67645925     0.14520
H788        H  0.08390799  0.88081021  0.65303906     0.15090
C789        C  0.04344032  0.93279107  0.77956816    -0.14500
C790        C  0.01243211  0.90609120  0.76308990    -0.29680
H791        H  0.07328100  0.93948059  0.76071284     0.14520
H792        H  0.98224165  0.90209170  0.78236989     0.15090
C793        C  0.22968128  0.00339078  0.87530082    -0.14500
C794        C  0.21312215  0.97391350  0.90493384    -0.29680
H795        H  0.20986611  0.03287950  0.86840206     0.14520
H796        H  0.24123823  0.46801669  0.93421160     0.15090
C797        C  0.31257914  0.99714469  0.87382025    -0.14500
C798        C  0.35193047  0.98234148  0.85789564    -0.29680
H799        H  0.31003194  0.00847997  0.90752354     0.14520
H800        H  0.35529355  0.96910107  0.82505767     0.15090
C801        C  0.17943101  0.52207973  0.59080965    -0.14500
C802        C  0.21719329  0.50290343  0.57550536    -0.29680
H803        H  0.17802664  0.54124700  0.62053494     0.14520
H804        H  0.21653067  0.48384254  0.54557207     0.15090
C805        C  0.29795498  0.50537233  0.56164098    -0.14500
C806        C  0.32433079  0.53857884  0.54845465    -0.29680
H807        H  0.30573030  0.47305681  0.54846760     0.14520
H808        H  0.29038004  0.02523409  0.51001636     0.15090
C809        C  0.45464271  0.69823218  0.99692213    -0.14500
C810        C  0.42334235  0.71265025  0.96835260    -0.29680
H811        H  0.46307463  0.71750956  0.52362785     0.14520
H812        H  0.41820758  0.69340489  0.93913180     0.15090
C813        C  0.41019313  0.82570445  0.50798679    -0.14500
C814        C  0.41616045  0.79329077  0.47770418    -0.29680
H815        H  0.38962055  0.82088914  0.53703591     0.14520
H816        H  0.43955752  0.79990984  0.95187681     0.15090
C817        C  0.12149984  0.67423682  0.93899960    -0.14500
C818        C  0.11680179  0.70713933  0.96890086    -0.29680
H819        H  0.14156471  0.67842051  0.90950106     0.14520
H820        H  0.09528219  0.70153742  0.99726615     0.15090
C821        C  0.11235060  0.78879700  0.97910849    -0.14500
C822        C  0.08013555  0.80340034  0.95184994    -0.29680
H823        H  0.11921413  0.80834048  0.00772407     0.14520
H824        H  0.07043408  0.78382925  0.92420508     0.15090
C825        C  0.99087155  0.56716928  0.66998233    -0.14500
C826        C  0.02257728  0.59372741  0.68559052    -0.29680
H827        H  0.96097042  0.56156834  0.68911200     0.14520
H828        H  0.55296140  0.59641645  0.66707168     0.15090
C829        C  0.01210287  0.59662237  0.76742454    -0.14500
C830        C  0.48095051  0.60408114  0.80068894    -0.29680
H831        H  0.03822269  0.57219682  0.77298820     0.14520
H832        H  0.45191916  0.62473369  0.79606197     0.15090
C833        C  0.47918194  0.65552268  0.71755599    -0.14500
C834        C  0.46540511  0.68800650  0.74457696    -0.29680
H835        H  0.45929837  0.64890949  0.68898880     0.14520
H836        H  0.48542688  0.69734094  0.77213129     0.15090
C837        C  0.06121735  0.64996770  0.72708538    -0.14500
C838        C  0.09387247  0.64592568  0.75766219    -0.29680
H839        H  0.06702935  0.67096476  0.69832429     0.14520
H840        H  0.08939458  0.62648767  0.78758490     0.15090
C841        C  0.01657159  0.12392405  0.22504158    -0.00560
O842        O  0.95600604  0.08336039  0.37207918    -0.84560
O843        O  0.65463572  0.45476540  0.45643141    -0.84730
O844        O  0.59651274  0.10387557  0.41399344    -0.86390
O845        O  0.56161528  0.48394320  0.33775641    -0.85150
O846        O  0.51280267  0.42863117  0.35217887    -0.84740
O847        O  0.58646383  0.12310964  0.48615587    -0.86110
O848        O  0.64270626  0.50565778  0.40105353    -0.84590
O849        O  0.52787237  0.07185589  0.34926363    -0.84180
Zr850      Zr  0.56539169  0.02885465  0.40320115     2.84310
O851        O  0.56212597  0.45516195  0.42852146    -1.06150
O852        O  0.52032764  0.07280915  0.44830507    -1.06880
C853        C  0.98799294  0.08526018  0.34335816     1.08550
C854        C  0.66754733  0.47823588  0.42264003     1.08490
C855        C  0.59966139  0.13105671  0.44654510     1.11470
C856        C  0.53899890  0.45011539  0.32635153     1.09250
H857        H  0.61936749  0.03431138  0.47630502     0.34810
O858        O  0.58953148  0.02393882  0.47549063    -1.27100
H859        H  0.98188119  0.50603478  0.37406176     0.34480
O860        O  0.49341766  0.50573417  0.40438057    -1.28780
O861        O  0.57696447  0.42007817  0.07703700    -0.84550
O862        O  0.87624585  0.04198801  0.48653869    -0.86050
O863        O  0.61472429  0.04989937  0.05981065    -0.84630
O864        O  0.53004929  0.36303856  0.43310744    -0.84680
O865        O  0.91835669  0.45001688  0.38757103    -0.84390
O866        O  0.50288884  0.13822352  0.01682273    -0.84200
O867        O  0.97048439  0.01585043  0.11225735    -0.84570
O868        O  0.93211459  0.39763723  0.03424751    -0.84030
O869        O  0.52135512  0.07088551  0.09763480    -0.85100
O870        O  0.94331964  0.37776252  0.46246918    -0.84250
O871        O  0.63580065  0.47955291  0.04927295    -0.84650
O872        O  0.94568314  0.12547820  0.46867574    -0.84370
O873        O  0.89505687  0.52064382  0.40246375    -0.84020
O874        O  0.58640089  0.37467454  0.48073759    -0.84430
O875        O  0.50541601  0.43199934  0.09995484    -0.84730
O876        O  0.89017911  0.49755809  0.04817465    -0.86070
Zr877      Zr  0.58546064  0.45071374  0.50131032     2.83100
Zr878      Zr  0.94756997  0.04991431  0.44659392     2.83500
Zr879      Zr  0.54480229  0.06777303  0.02176104     2.84090
Zr880      Zr  0.48826949  0.43315308  0.42784269     2.83360
Zr881      Zr  0.96585418  0.47172778  0.04425973     2.84220
O882        O  0.94197271  0.47739814  0.47145437    -1.06640
O883        O  0.53928978  0.49476784  0.04525620    -1.06140
C884        C  0.54530837  0.41883607  0.10613576     1.08520
C885        C  0.86341021  0.01729128  0.02065326     1.11140
C886        C  0.64264375  0.01700109  0.06202380     1.08690
C887        C  0.56362109  0.34991483  0.45610881     1.09050
C888        C  0.89131940  0.48354031  0.38431558     1.08640
C889        C  0.96778601  0.15006186  0.49405674     1.08190
C890        C  0.49477763  0.04968414  0.12323859     1.08610
C891        C  0.92913584  0.37015396  0.00190734     1.08130
H892        H  0.95073214  0.06366658  0.03898661     0.34810
O893        O  0.96955398  0.04523681  0.02084824    -1.27740
H894        H  0.51140459  0.39800924  0.01221706     0.34830
O895        O  0.51255734  0.42795773  0.50047647    -1.29120
C896        C  0.76261822  0.00783354  0.10191731    -0.00560
O897        O  0.66329805  0.16896133  0.28416366    -0.84560
O898        O  0.74982167  0.29594338  0.08667596    -0.84730
O899        O  0.62818174  0.26491126  0.18217517    -0.86390
O900        O  0.71557329  0.15416245  0.13830189    -0.85150
O901        O  0.78512673  0.12927263  0.15693406    -0.84740
O902        O  0.64028830  0.31970346  0.23081395    -0.86110
O903        O  0.69510574  0.24638747  0.10073399    -0.84590
O904        O  0.64351921  0.17960836  0.21205461    -0.84180
Zr905      Zr  0.69870261  0.22325923  0.17686877     2.84310
O906        O  0.77183901  0.22842210  0.15462655    -1.06150
O907        O  0.69317785  0.24640200  0.24949070    -1.06880
C908        C  0.63597322  0.16581616  0.25156065     1.08550
C909        C  0.71640195  0.27271563  0.07494360     1.08490
C910        C  0.61524877  0.29788201  0.20574188     1.11470
C911        C  0.74840134  0.12616126  0.13753173     1.09250
H912        H  0.70179471  0.31530926  0.15974974     0.34810
O913        O  0.72063372  0.29681649  0.17800194    -1.27100
H914        H  0.73270745  0.14771024  0.22187435     0.34480
O915        O  0.74260984  0.17763352  0.22243414    -1.28780
O916        O  0.86923090  0.33428715  0.16477757    -0.84550
O917        O  0.78253980  0.20673522  0.36270578    -0.86050
O918        O  0.72106758  0.38862801  0.20747854    -0.84630
O919        O  0.84543303  0.19055290  0.12317358    -0.84680
O920        O  0.81774821  0.11701358  0.24742599    -0.84390
O921        O  0.68298330  0.31027587  0.32550425    -0.84200
O922        O  0.81819472  0.34794941  0.31103776    -0.84570
O923        O  0.90516358  0.23684577  0.26645001    -0.84030
O924        O  0.74660290  0.36998774  0.29754226    -0.85100
O925        O  0.89279123  0.18203241  0.21788477    -0.84250
O926        O  0.77177970  0.37738979  0.15204271    -0.84650
O927        O  0.69467807  0.23871569  0.34832558    -0.84370
O928        O  0.76374473  0.12587523  0.30034373    -0.84020
O929        O  0.83466183  0.26216151  0.10020315    -0.84430
O930        O  0.88938349  0.32347727  0.23683833    -0.84730
O931        O  0.83884663  0.25445663  0.34809748    -0.86070
Zr932      Zr  0.79473260  0.30113285  0.15503984     2.83100
Zr933      Zr  0.73782043  0.20145606  0.29461347     2.83500
Zr934      Zr  0.71634531  0.31873513  0.25104534     2.84090
Zr935      Zr  0.81629714  0.18342871  0.19925806     2.83360
Zr936      Zr  0.83476393  0.27892212  0.27219661     2.84220
O937        O  0.81199681  0.20578252  0.27194433    -1.06640
O938        O  0.78987596  0.32445675  0.22762513    -1.06140
C939        C  0.89675563  0.33732904  0.19727544     1.08520
C940        C  0.81671133  0.22894408  0.37408726     1.11140
C941        C  0.74467833  0.40196755  0.17399493     1.08690
C942        C  0.84709749  0.22221416  0.09405351     1.09050
C943        C  0.79439008  0.10335971  0.28080485     1.08640
C944        C  0.68107149  0.27833055  0.35434802     1.08190
C945        C  0.78429153  0.37439173  0.31477312     1.08610
C946        C  0.91800194  0.20390091  0.24274725     1.08130
H947        H  0.76112830  0.28457068  0.32488804     0.34810
O948        O  0.76180121  0.27398789  0.29520198    -1.27740
H949        H  0.86929801  0.25597333  0.18803525     0.34830
O950        O  0.83951241  0.25560618  0.19948219    -1.29120
C951        C  0.64206864  0.24979649  0.47262559    -0.00560
C952        C  0.51648514  0.37789711  0.22353278    -0.00560
C953        C  0.88903546  0.25077282  0.47707560    -0.00560
C954        C  0.77145818  0.49545000  0.34712304    -0.00560
C955        C  0.66280428  0.28649362  0.39849093    -0.14500
C956        C  0.66996675  0.25622321  0.43125194    -0.29680
H957        H  0.64230931  0.31559083  0.40265095     0.14520
H958        H  0.69446191  0.23017569  0.42598525     0.15090
C959        C  0.69917586  0.27666518  0.02898692    -0.14500
C960        C  0.67235481  0.24534369  0.01320684    -0.29680
H961        H  0.70496577  0.30652695  0.00986024     0.14520
H962        H  0.66921655  0.21518308  0.03270834     0.15090
C963        C  0.83327265  0.22502225  0.42011788    -0.14500
C964        C  0.86011091  0.25609475  0.43608310    -0.29680
H965        H  0.82660230  0.19547620  0.43944300     0.14520
H966        H  0.86414623  0.28602626  0.41639650     0.15090
C967        C  0.86501513  0.21354737  0.04983473    -0.14500
C968        C  0.85936226  0.24433246  0.01732359    -0.29680
H969        H  0.88505321  0.18411242  0.04569750     0.14520
H970        H  0.83515886  0.27070543  0.02227362     0.15090
C971        C  0.76727323  0.45146840  0.32537141    -0.14500
C972        C  0.78775722  0.41394917  0.33982542    -0.29680
H973        H  0.74698626  0.45081637  0.29610380     0.14520
H974        H  0.80743815  0.41218506  0.36935725     0.15090
C975        C  0.77103353  0.03181935  0.31041156    -0.14500
C976        C  0.80419690  0.05946716  0.30035559    -0.29680
H977        H  0.73940372  0.03884153  0.29493017     0.14520
H978        H  0.83748902  0.05324896  0.31167869     0.15090
C979        C  0.97369890  0.35106034  0.21993359    -0.14500
C980        C  0.94078866  0.35746771  0.18987855    -0.29680
H981        H  0.96781921  0.32851057  0.24747880     0.14520
H982        H  0.94524130  0.37842802  0.16099810     0.15090
C983        C  0.56891833  0.31422419  0.20323046    -0.14500
C984        C  0.55492722  0.34576503  0.23128876    -0.29680
H985        H  0.54916241  0.30595604  0.17512144     0.14520
H986        H  0.57457912  0.35118057  0.26031088     0.15090
C987        C  0.73986770  0.44843525  0.15775057    -0.14500
C988        C  0.76956118  0.46521460  0.12842438    -0.29680
H989        H  0.71019382  0.46707956  0.16628445     0.14520
H990        H  0.79945559  0.44576018  0.12236775     0.15090
C991        C  0.74565973  0.08688233  0.11249203    -0.14500
C992        C  0.75847584  0.04767956  0.13046595    -0.29680
H993        H  0.73592646  0.09025323  0.07829153     0.14520
H994        H  0.76673361  0.04485966  0.16516011     0.15090
C995        C  0.52319997  0.40688532  0.18287932    -0.14500
C996        C  0.55384723  0.40064660  0.15044610    -0.29680
H997        H  0.49712494  0.43145504  0.17772917     0.14520
H998        H  0.58297909  0.38004285  0.15475050     0.15090
C999        C  0.54319081  0.43312740  0.28055761    -0.14500
C1000       C  0.51170762  0.40677450  0.26440850    -0.29680
H1001       H  0.57306768  0.43927483  0.26156298     0.14520
H1002       H  0.48150088  0.40331919  0.28378173     0.15090
C1003       C  0.73044067  0.50278524  0.37632030    -0.14500
C1004       C  0.71388473  0.47324972  0.40594127    -0.29680
H1005       H  0.71073141  0.53238495  0.36963277     0.14520
H1006       H  0.73174242  0.94318305  0.41234657     0.15090
C1007       C  0.81325320  0.49668491  0.37373831    -0.14500
C1008       C  0.85228066  0.48091002  0.35792741    -0.29680
H1009       H  0.81112326  0.50896032  0.40712176     0.14520
H1010       H  0.85529926  0.46661930  0.32552518     0.15090
C1011       C  0.68200205  0.02117457  0.08749276    -0.14500
C1012       C  0.72175739  0.00467219  0.07363970    -0.29680
H1013       H  0.67763203  0.03764854  0.11862191     0.14520
H1014       H  0.72425923  0.98672661  0.04309366     0.15090
C1015       C  0.80669036  0.01373887  0.07785046    -0.14500
C1016       C  0.81605601  0.01891745  0.03460367    -0.29680
H1017       H  0.83461968  0.01326606  0.10011580     0.14520
H1018       H  0.81491839  0.57118879  0.05474229     0.15090
C1019       C  0.95154533  0.19626540  0.49750689    -0.14500
C1020       C  0.92020125  0.21147965  0.46949850    -0.29680
H1021       H  0.95998392  0.21569449  0.02560135     0.14520
H1022       H  0.91432068  0.19234871  0.44035675     0.15090
C1023       C  0.90864454  0.32628284  0.00944101    -0.14500
C1024       C  0.91480026  0.29325347  0.97977652    -0.29680
H1025       H  0.88753213  0.32207483  0.03819153     0.14520
H1026       H  0.93803108  0.29902119  0.45259558     0.15090
C1027       C  0.61998772  0.17501386  0.43922987    -0.14500
C1028       C  0.61581515  0.20706131  0.47018909    -0.29680
H1029       H  0.63959341  0.18001095  0.40955084     0.14520
H1030       H  0.59463325  0.20078224  0.49866326     0.15090
C1031       C  0.61080641  0.28865228  0.48109605    -0.14500
C1032       C  0.57887882  0.30345010  0.45361959    -0.29680
H1033       H  0.61738544  0.30804019  0.50989900     0.14520
H1034       H  0.56935394  0.28402589  0.42580535     0.15090
C1035       C  0.49061227  0.06687335  0.16900008    -0.14500
C1036       C  0.52198918  0.09365100  0.18474599    -0.29680
H1037       H  0.46063596  0.06106357  0.18794784     0.14520
H1038       H  0.05113095  0.09675120  0.16546945     0.15090
C1039       C  0.51029406  0.09569524  0.26615968    -0.14500
C1040       C  0.97974112  0.10339577  0.29906418    -0.29680
H1041       H  0.53627375  0.07112390  0.27179371     0.14520
H1042       H  0.95055906  0.12385748  0.29455588     0.15090
C1043       C  0.97812228  0.15589743  0.21689283    -0.14500
C1044       C  0.96447429  0.18795429  0.24454522    -0.29680
H1045       H  0.95807168  0.14970624  0.18833243     0.14520
H1046       H  0.98465870  0.19679924  0.27215291     0.15090
C1047       C  0.56013360  0.14926216  0.22745091    -0.14500
C1048       C  0.59220794  0.14498389  0.25863679    -0.29680
H1049       H  0.56637682  0.17053791  0.19899205     0.14520
H1050       H  0.58726931  0.12525784  0.28829966     0.15090
C1051       C  0.01562594  0.12408412  0.72535393    -0.00560
O1052       O  0.95583213  0.08267237  0.87255184    -0.84560
O1053       O  0.65401694  0.45490867  0.95656202    -0.84730
O1054       O  0.59729653  0.10427257  0.91421974    -0.86390
O1055       O  0.56046086  0.48375054  0.83814978    -0.85150
O1056       O  0.51109925  0.42886942  0.85236054    -0.84740
O1057       O  0.58775916  0.12343777  0.98648256    -0.86110
O1058       O  0.64199248  0.50572485  0.90113928    -0.84590
O1059       O  0.52814283  0.07194117  0.84932012    -0.84180
Zr1060     Zr  0.56600759  0.02926499  0.90377328     2.84310
O1061       O  0.56139887  0.45509511  0.92864048    -1.06150
O1062       O  0.52149879  0.07376107  0.94897220    -1.06880
C1063       C  0.98781103  0.08487686  0.84381981     1.08550
C1064       C  0.66689963  0.47836166  0.92273155     1.08490
C1065       C  0.60066557  0.13141219  0.94678569     1.11470
C1066       C  0.53756555  0.45014635  0.82661027     1.09250
H1067       H  0.61958636  0.03455193  0.97736328     0.34810
O1068       O  0.58974556  0.02426078  0.97623844    -1.27100
H1069       H  0.98242421  0.50598999  0.87445287     0.34480
O1070       O  0.49245084  0.50597316  0.90475002    -1.28780
O1071       O  0.57736316  0.42079382  0.57731684    -0.84550
O1072       O  0.87623235  0.04051136  0.98682086    -0.86050
O1073       O  0.61407274  0.04927493  0.55903902    -0.84630
O1074       O  0.52907773  0.36295056  0.93354643    -0.84680
O1075       O  0.91829039  0.45022182  0.88821405    -0.84390
O1076       O  0.50148601  0.13680361  0.51653554    -0.84200
O1077       O  0.97042421  0.01633730  0.61144285    -0.84570
O1078       O  0.93260976  0.39786778  0.53432608    -0.84030
O1079       O  0.52066209  0.07056463  0.59711383    -0.85100
O1080       O  0.94320587  0.37754214  0.96244434    -0.84250
O1081       O  0.63780612  0.48084816  0.54759199    -0.84650
O1082       O  0.94511635  0.12539500  0.96944674    -0.84370
O1083       O  0.89470639  0.52050710  0.90419084    -0.84020
O1084       O  0.58570891  0.37465994  0.98077038    -0.84430
O1085       O  0.50551799  0.43206660  0.59963487    -0.84730
O1086       O  0.88962651  0.49551898  0.54694605    -0.86070
Zr1087     Zr  0.58472389  0.45055322  0.00133494     2.83100
Zr1088     Zr  0.94758430  0.04989369  0.94746122     2.83500
Zr1089     Zr  0.54387472  0.06690601  0.52111038     2.84090
Zr1090     Zr  0.48754190  0.43337190  0.92840654     2.83360
Zr1091     Zr  0.96589778  0.47219555  0.54400784     2.84220
O1092       O  0.94205333  0.47746550  0.97161480    -1.06640
O1093       O  0.53976022  0.49490382  0.54505870    -1.06140
C1094       C  0.54546476  0.41928820  0.60617326     1.08520
C1095       C  0.86351858  0.01921723  0.52074875     1.11140
C1096       C  0.64278628  0.01698790  0.56054192     1.08690
C1097       C  0.56281912  0.34984528  0.95635692     1.09050
C1098       C  0.89098446  0.48359343  0.88557266     1.08640
C1099       C  0.96735705  0.15022762  0.99442775     1.08190
C1100       C  0.49377654  0.04970938  0.62268184     1.08610
C1101       C  0.92951539  0.37036659  0.50202069     1.08130
H1102       H  0.95115700  0.06377370  0.53804420     0.34810
O1103       O  0.96982840  0.04522704  0.51988655    -1.27740
H1104       H  0.51203846  0.39817155  0.51182831     0.34830
O1105       O  0.51189971  0.42781168  0.00090797    -1.29120
C1106       C  0.76240105  0.00811256  0.60189166    -0.00560
O1107       O  0.66193256  0.16952956  0.78391668    -0.84560
O1108       O  0.74924968  0.29561091  0.58635031    -0.84730
O1109       O  0.62700007  0.26508721  0.68159393    -0.86390
O1110       O  0.71458036  0.15403290  0.63819044    -0.85150
O1111       O  0.78475230  0.13014138  0.65567328    -0.84740
O1112       O  0.63856780  0.31871458  0.73162530    -0.86110
O1113       O  0.69444212  0.24613650  0.60037288    -0.84590
O1114       O  0.64214985  0.17985191  0.71174079    -0.84180
Zr1115     Zr  0.69754547  0.22320709  0.67657955     2.84310
O1116       O  0.77070301  0.22872828  0.65430853    -1.06150
O1117       O  0.69194357  0.24618036  0.74927928    -1.06880
C1118       C  0.63453381  0.16635387  0.75132630     1.08550
C1119       C  0.71594430  0.27228511  0.57456874     1.08490
C1120       C  0.61378906  0.29752665  0.70578335     1.11470
C1121       C  0.74779692  0.12651884  0.63687937     1.09250
H1122       H  0.70045297  0.31476146  0.65951896     0.34810
O1123       O  0.71944629  0.29658760  0.67790578    -1.27100
H1124       H  0.73165471  0.14802526  0.72146304     0.34480
O1125       O  0.74157362  0.17793037  0.72221523    -1.28780
O1126       O  0.86751758  0.33555153  0.66483442    -0.84550
O1127       O  0.78176022  0.20659136  0.86248241    -0.86050
O1128       O  0.71490476  0.38634386  0.70438813    -0.84630
O1129       O  0.84501324  0.19128251  0.62325860    -0.84680
O1130       O  0.81427762  0.11530889  0.74391246    -0.84390
O1131       O  0.68179624  0.31038122  0.82547323    -0.84200
O1132       O  0.81677792  0.34817746  0.81092447    -0.84570
O1133       O  0.90391874  0.23713928  0.76656626    -0.84030
O1134       O  0.74576950  0.37111121  0.79586403    -0.85100
O1135       O  0.89139402  0.18185878  0.71859595    -0.84250
O1136       O  0.76814769  0.37713567  0.65075178    -0.84650
O1137       O  0.69392084  0.23892586  0.84847672    -0.84370
O1138       O  0.76289318  0.12596814  0.79885133    -0.84020
O1139       O  0.83391320  0.26280142  0.60018891    -0.84430
O1140       O  0.88786562  0.32431379  0.73676572    -0.84730
O1141       O  0.83773749  0.25470822  0.84791459    -0.86070
Zr1142     Zr  0.79349593  0.30152417  0.65495547     2.83100
Zr1143     Zr  0.73681842  0.20158440  0.79447931     2.83500
Zr1144     Zr  0.71481074  0.31852869  0.75091530     2.84090
Zr1145     Zr  0.81521039  0.18381977  0.69895564     2.83360
Zr1146     Zr  0.83351194  0.27928214  0.77201768     2.84220
O1147       O  0.81098835  0.20601123  0.77173846    -1.06640
O1148       O  0.78839750  0.32486650  0.72757443    -1.06140
C1149       C  0.89505425  0.33859398  0.69730981     1.08520
C1150       C  0.81586224  0.22892079  0.87386196     1.11140
C1151       C  0.73834500  0.40005376  0.67102281     1.08690
C1152       C  0.84673948  0.22293434  0.59417241     1.09050
C1153       C  0.79117232  0.10194997  0.77756306     1.08640
C1154       C  0.68020268  0.27853921  0.85443836     1.08190
C1155       C  0.78319669  0.37511089  0.81387253     1.08610
C1156       C  0.91664548  0.20385115  0.74327917     1.08130
H1157       H  0.75995334  0.28480432  0.82472060     0.34810
O1158       O  0.76058741  0.27415674  0.79505935    -1.27740
H1159       H  0.86828810  0.25652448  0.68796763     0.34830
O1160       O  0.83845559  0.25604532  0.69930585    -1.29120
C1161       C  0.64214735  0.25038311  0.97295496    -0.00560
C1162       C  0.51541728  0.37827391  0.72324429    -0.00560
C1163       C  0.88854848  0.25053794  0.97678878    -0.00560
C1164       C  0.77109981  0.49602286  0.84744807    -0.00560
C1165       C  0.66222038  0.28689529  0.89863740    -0.14500
C1166       C  0.67002095  0.25704114  0.93160740    -0.29680
H1167       H  0.64135330  0.31575131  0.90266709     0.14520
H1168       H  0.69483850  0.23128320  0.92638925     0.15090
C1169       C  0.69910247  0.27594649  0.52850661    -0.14500
C1170       C  0.67229409  0.24461047  0.51279127    -0.29680
H1171       H  0.70497379  0.30573911  0.50929362     0.14520
H1172       H  0.66903574  0.21450651  0.53236164     0.15090
C1173       C  0.83268968  0.22478643  0.91981525    -0.14500
C1174       C  0.85955619  0.25582354  0.93581813    -0.29680
H1175       H  0.82611108  0.19516744  0.93905815     0.14520
H1176       H  0.86349074  0.28581462  0.91620424     0.15090
C1177       C  0.86524506  0.21425713  0.55020013    -0.14500
C1178       C  0.85969469  0.24481026  0.51751125    -0.29680
H1179       H  0.88551975  0.18493608  0.54637228     0.14520
H1180       H  0.83542213  0.27117648  0.52219503     0.15090
C1181       C  0.76678316  0.45234640  0.82508068    -0.14500
C1182       C  0.78684694  0.41454115  0.83922081    -0.29680
H1183       H  0.74660922  0.45213708  0.79571581     0.14520
H1184       H  0.80635686  0.41240425  0.86885339     0.15090
C1185       C  0.76591573  0.03744065  0.81998051    -0.14500
C1186       C  0.79706196  0.05568977  0.79363799    -0.29680
H1187       H  0.73593790  0.05686777  0.82590635     0.14520
H1188       H  0.82694762  0.03729983  0.78522209     0.15090
C1189       C  0.97183149  0.35301525  0.72004013    -0.14500
C1190       C  0.93891532  0.35919287  0.68997306    -0.29680
H1191       H  0.96596101  0.33061694  0.74771053     0.14520
H1192       H  0.94332751  0.38007275  0.66102647     0.15090
C1193       C  0.56754813  0.31421502  0.70301042    -0.14500
C1194       C  0.55356221  0.34577289  0.73110885    -0.29680
H1195       H  0.54798438  0.30629993  0.67465542     0.14520
H1196       H  0.57300636  0.35092246  0.76032398     0.15090
C1197       C  0.72959738  0.44448915  0.65208568    -0.14500
C1198       C  0.76356392  0.46919142  0.63733164    -0.29680
H1199       H  0.69563324  0.45361903  0.64532489     0.14520
H1200       H  0.79625061  0.45967559  0.64903522     0.15090
C1201       C  0.74524438  0.08713491  0.61203341    -0.14500
C1202       C  0.75794406  0.04802398  0.63029699    -0.29680
H1203       H  0.73592441  0.09037759  0.57770715     0.14520
H1204       H  0.76590029  0.04536028  0.66507550     0.15090
C1205       C  0.52267803  0.40739089  0.68275525    -0.14500
C1206       C  0.55367498  0.40118252  0.65061468    -0.29680
H1207       H  0.49675065  0.43207305  0.67740606     0.14520
H1208       H  0.58272153  0.38050751  0.65519703     0.15090
C1209       C  0.54190852  0.43318062  0.78077328    -0.14500
C1210       C  0.51048918  0.40694744  0.76431474    -0.29680
H1211       H  0.57188534  0.43932599  0.76193994     0.14520
H1212       H  0.48018705  0.40346891  0.78353034     0.15090
C1213       C  0.72991641  0.50312175  0.87656883    -0.14500
C1214       C  0.71327657  0.47343613  0.90601113    -0.29680
H1215       H  0.71021224  0.53276093  0.87006513     0.14520
H1216       H  0.74111655  0.96990104  0.93397477     0.15090
C1217       C  0.81278872  0.49698734  0.87440715    -0.14500
C1218       C  0.85190670  0.48100594  0.85902597    -0.29680
H1219       H  0.81047988  0.50940590  0.90772202     0.14520
H1220       H  0.85507807  0.46660307  0.82668991     0.15090
C1221       C  0.68193527  0.02143812  0.58636371    -0.14500
C1222       C  0.72188171  0.00486399  0.57312826    -0.29680
H1223       H  0.67719099  0.03804228  0.61737642     0.14520
H1224       H  0.72482044  0.98676246  0.54270639     0.15090
C1225       C  0.80672283  0.01398994  0.57812451    -0.14500
C1226       C  0.81619992  0.02116829  0.53510074    -0.29680
H1227       H  0.83461367  0.01223681  0.60041643     0.14520
H1228       H  0.79975935  0.55743691  0.53318806     0.15090
C1229       C  0.95119727  0.19645546  0.99740578    -0.14500
C1230       C  0.91988324  0.21141482  0.96923688    -0.29680
H1231       H  0.96042796  0.21530026  0.52581156     0.14520
H1232       H  0.91404212  0.19212103  0.94019371     0.15090
C1233       C  0.90918898  0.32646386  0.50968908    -0.14500
C1234       C  0.91539232  0.29340118  0.48007196    -0.29680
H1235       H  0.88807349  0.32229052  0.53844368     0.14520
H1236       H  0.93741135  0.29891305  0.95228552     0.15090
C1237       C  0.62077504  0.17544333  0.93944237    -0.14500
C1238       C  0.61626272  0.20746677  0.97039556    -0.29680
H1239       H  0.64041989  0.18054336  0.90980644     0.14520
H1240       H  0.59501888  0.20106190  0.99879662     0.15090
C1241       C  0.61048918  0.28894862  0.98137725    -0.14500
C1242       C  0.57829453  0.30341275  0.95396587    -0.29680
H1243       H  0.61699328  0.30843208  0.01013166     0.14520
H1244       H  0.56881834  0.28385017  0.92623449     0.15090
C1245       C  0.48922739  0.06738081  0.66840043    -0.14500
C1246       C  0.52026450  0.09459900  0.68426585    -0.29680
H1247       H  0.45934395  0.06119844  0.68736518     0.14520
H1248       H  0.05058198  0.09775851  0.66550877     0.15090
C1249       C  0.50910359  0.09619547  0.76605411    -0.14500
C1250       C  0.97931433  0.10289703  0.79947877    -0.29680
H1251       H  0.53495089  0.07137948  0.77119226     0.14520
H1252       H  0.94992542  0.12308285  0.79505128     0.15090
C1253       C  0.97675295  0.15565310  0.71755310    -0.14500
C1254       C  0.96305087  0.18769276  0.74524542    -0.29680
H1255       H  0.95661947  0.14931481  0.68909238     0.14520
H1256       H  0.98329368  0.19668010  0.77275894     0.15090
C1257       C  0.55843317  0.15013904  0.72733393    -0.14500
C1258       C  0.59061158  0.14578122  0.75847126    -0.29680
H1259       H  0.56462562  0.17150188  0.69893034     0.14520
H1260       H  0.58569434  0.12603183  0.78811993     0.15090
C1261       C  0.01677587  0.62353317  0.22550589    -0.00560
O1262       O  0.95621889  0.58378809  0.37295602    -0.84560
O1263       O  0.65372304  0.95425168  0.45347061    -0.84730
O1264       O  0.59813284  0.60366269  0.41504181    -0.86390
O1265       O  0.56083691  0.98358407  0.33545115    -0.85150
O1266       O  0.51270663  0.92768399  0.34996201    -0.84740
O1267       O  0.58870854  0.62345592  0.48711443    -0.86110
O1268       O  0.64200542  0.00583513  0.39869479    -0.84590
O1269       O  0.52892964  0.57212126  0.35121676    -0.84180
Zr1270     Zr  0.56636839  0.52906426  0.40544469     2.84310
O1271       O  0.56176724  0.95476213  0.42596351    -1.06150
O1272       O  0.52196877  0.57371591  0.45041133    -1.06880
C1273       C  0.98822550  0.58549917  0.34420046     1.08550
C1274       C  0.66672806  0.97803485  0.42000260     1.08490
C1275       C  0.60165811  0.63102197  0.44730426     1.11470
C1276       C  0.53862656  0.94943652  0.32409548     1.09250
H1277       H  0.62081015  0.53425449  0.47901751     0.34810
O1278       O  0.59085661  0.52424452  0.47786986    -1.27100
H1279       H  0.98177281  0.00544301  0.37272825     0.34480
O1280       O  0.49264658  0.00480489  0.40200518    -1.28780
O1281       O  0.57656239  0.92055103  0.07541585    -0.84550
O1282       O  0.87808608  0.54661021  0.49169199    -0.86050
O1283       O  0.61333316  0.55036205  0.06420721    -0.84630
O1284       O  0.53032367  0.86211296  0.43092734    -0.84680
O1285       O  0.91831592  0.94889242  0.38666320    -0.84390
O1286       O  0.50348114  0.63847105  0.01868814    -0.84200
O1287       O  0.97107576  0.51588006  0.11265306    -0.84570
O1288       O  0.93373188  0.89659314  0.03439219    -0.84030
O1289       O  0.52114178  0.57076267  0.09939316    -0.85100
O1290       O  0.94333018  0.87754839  0.46152798    -0.84250
O1291       O  0.63907903  0.97983835  0.04398415    -0.84650
O1292       O  0.94731063  0.62672818  0.46759176    -0.84370
O1293       O  0.89530397  0.01979372  0.40065228    -0.84020
O1294       O  0.58661941  0.87444240  0.47834379    -0.84430
O1295       O  0.50481412  0.93168225  0.09802234    -0.84730
O1296       O  0.88891634  0.99225303  0.04435816    -0.86070
Zr1297     Zr  0.58503066  0.95034509  0.49870573     2.83100
Zr1298     Zr  0.94776978  0.55079946  0.44778408     2.83500
Zr1299     Zr  0.54505213  0.56791252  0.02359235     2.84090
Zr1300     Zr  0.48815187  0.93211952  0.42555490     2.83360
Zr1301     Zr  0.96621184  0.97115418  0.04396240     2.84220
O1302       O  0.94247381  0.97659937  0.47052610    -1.06640
O1303       O  0.53934540  0.99478744  0.04426837    -1.06140
C1304       C  0.54478236  0.91878739  0.10430121     1.08520
C1305       C  0.86751076  0.52797675  0.02825197     1.11140
C1306       C  0.63988068  0.51653746  0.06762897     1.08690
C1307       C  0.56407168  0.84937375  0.45390280     1.09050
C1308       C  0.89135195  0.98245097  0.38304722     1.08640
C1309       C  0.96929217  0.65149176  0.49280599     1.08190
C1310       C  0.49483058  0.54935698  0.12512373     1.08610
C1311       C  0.93077834  0.86936296  0.00187862     1.08130
H1312       H  0.95293010  0.56453366  0.03939263     0.34810
O1313       O  0.97107941  0.54563346  0.02112986    -1.27740
H1314       H  0.51140598  0.89818470  0.00995576     0.34830
O1315       O  0.51233666  0.92722354  0.49827634    -1.29120
C1316       C  0.76182971  0.50554090  0.09816606    -0.00560
O1317       O  0.66381510  0.66911259  0.28248820    -0.84560
O1318       O  0.75066002  0.79525755  0.08412362    -0.84730
O1319       O  0.62856762  0.76392725  0.17931703    -0.86390
O1320       O  0.71639278  0.65334375  0.13460137    -0.85150
O1321       O  0.78634084  0.62907116  0.15238091    -0.84740
O1322       O  0.64049837  0.81857394  0.22816635    -0.86110
O1323       O  0.69576738  0.74587478  0.09817886    -0.84590
O1324       O  0.64374630  0.67896190  0.21033520    -0.84180
Zr1325     Zr  0.69914074  0.72200875  0.17419712     2.84310
O1326       O  0.77240300  0.72754008  0.15239439    -1.06150
O1327       O  0.69358138  0.74532133  0.24681556    -1.06880
C1328       C  0.63632505  0.66581203  0.25012964     1.08550
C1329       C  0.71713565  0.77220462  0.07241445     1.08490
C1330       C  0.61554164  0.79687118  0.20294042     1.11470
C1331       C  0.74957644  0.62574866  0.13290083     1.09250
H1332       H  0.70222635  0.81396505  0.15715913     0.34810
O1333       O  0.72109062  0.79555823  0.17546190    -1.27100
H1334       H  0.73332134  0.64656760  0.21927390     0.34480
O1335       O  0.74308533  0.67653268  0.22001367    -1.28780
O1336       O  0.86956892  0.83392249  0.16247503    -0.84550
O1337       O  0.78325169  0.70620661  0.36029503    -0.86050
O1338       O  0.71954792  0.88697841  0.20468164    -0.84630
O1339       O  0.84731269  0.68974917  0.12141246    -0.84680
O1340       O  0.81752302  0.61600847  0.24565324    -0.84390
O1341       O  0.68322227  0.80967714  0.32294945    -0.84200
O1342       O  0.81781530  0.84747625  0.30866191    -0.84570
O1343       O  0.90520869  0.73671868  0.26490134    -0.84030
O1344       O  0.74649917  0.86976989  0.29425276    -0.85100
O1345       O  0.89305287  0.68145322  0.21675889    -0.84250
O1346       O  0.77060524  0.87632055  0.14942935    -0.84650
O1347       O  0.69537017  0.73830904  0.34608498    -0.84370
O1348       O  0.76364763  0.62536998  0.29860281    -0.84020
O1349       O  0.83565021  0.76116522  0.09817390    -0.84430
O1350       O  0.88939194  0.82332994  0.23463260    -0.84730
O1351       O  0.83920236  0.75432790  0.34577211    -0.86070
Zr1352     Zr  0.79519671  0.80035224  0.15261327     2.83100
Zr1353     Zr  0.73838923  0.70093951  0.29225165     2.83500
Zr1354     Zr  0.71646068  0.81765043  0.24845787     2.84090
Zr1355     Zr  0.81679793  0.68237616  0.19695190     2.83360
Zr1356     Zr  0.83485589  0.77857780  0.26980585     2.84220
O1357       O  0.81244638  0.70529334  0.26950548    -1.06640
O1358       O  0.79000972  0.82397101  0.22508453    -1.06140
C1359       C  0.89693616  0.83714068  0.19509750     1.08520
C1360       C  0.81731171  0.72856539  0.37171838     1.11140
C1361       C  0.74287267  0.90046972  0.17120267     1.08690
C1362       C  0.84883090  0.72138686  0.09225155     1.09050
C1363       C  0.79416223  0.60261147  0.27920761     1.08640
C1364       C  0.68161302  0.77789986  0.35198309     1.08190
C1365       C  0.78396793  0.87403379  0.31200246     1.08610
C1366       C  0.91809841  0.70352303  0.24164173     1.08130
H1367       H  0.76136846  0.78417266  0.32258380     0.34810
O1368       O  0.76203621  0.77349455  0.29293695    -1.27740
H1369       H  0.86966147  0.75530545  0.18593944     0.34830
O1370       O  0.83981555  0.75480764  0.19722539    -1.29120
C1371       C  0.64374706  0.75022521  0.47090193    -0.00560
C1372       C  0.51649963  0.87679544  0.22136904    -0.00560
C1373       C  0.88962083  0.75061414  0.47482515    -0.00560
C1374       C  0.77144740  0.99479916  0.34567701    -0.00560
C1375       C  0.66365025  0.78628887  0.39620919    -0.14500
C1376       C  0.67125241  0.75633807  0.42918127    -0.29680
H1377       H  0.64305747  0.81533381  0.40031113     0.14520
H1378       H  0.69583056  0.73037261  0.42391290     0.15090
C1379       C  0.69988045  0.77638390  0.02650035    -0.14500
C1380       C  0.67272631  0.74533391  0.01084884    -0.29680
H1381       H  0.70594528  0.80616446  0.00733539     0.14520
H1382       H  0.66936672  0.71526243  0.03045634     0.15090
C1383       C  0.83406854  0.72447759  0.41770761    -0.14500
C1384       C  0.86057771  0.75573717  0.43385518    -0.29680
H1385       H  0.82776746  0.69472834  0.43684256     0.14520
H1386       H  0.86418017  0.78584395  0.41434765     0.15090
C1387       C  0.86747361  0.71294592  0.04823347    -0.14500
C1388       C  0.86149776  0.74352871  0.01557932    -0.29680
H1389       H  0.88824603  0.68396067  0.04436871     0.14520
H1390       H  0.83684560  0.76953656  0.02030516     0.15090
C1391       C  0.76701617  0.95109417  0.32337921    -0.14500
C1392       C  0.78727192  0.91334387  0.33747590    -0.29680
H1393       H  0.74680562  0.95085091  0.29404047     0.14520
H1394       H  0.80675165  0.91117220  0.36712633     0.15090
C1395       C  0.77038674  0.53214610  0.31143886    -0.14500
C1396       C  0.80379195  0.55880696  0.29926545    -0.29680
H1397       H  0.73825997  0.53968645  0.29722946     0.14520
H1398       H  0.83747216  0.55182495  0.30898014     0.15090
C1399       C  0.97363730  0.85114653  0.21837745    -0.14500
C1400       C  0.94100478  0.85740913  0.18798052    -0.29680
H1401       H  0.96748721  0.82871634  0.24595918     0.14520
H1402       H  0.94574768  0.87824480  0.15905407     0.15090
C1403       C  0.56919711  0.81334590  0.20045107    -0.14500
C1404       C  0.55517656  0.84477946  0.22869962    -0.29680
H1405       H  0.54938750  0.80513395  0.17236410     0.14520
H1406       H  0.57491691  0.85018641  0.25766016     0.15090
C1407       C  0.73732598  0.94686807  0.15543498    -0.14500
C1408       C  0.76787821  0.96476312  0.12813019    -0.29680
H1409       H  0.70762620  0.96537214  0.16420726     0.14520
H1410       H  0.79777136  0.94531196  0.12183396     0.15090
C1411       C  0.74656957  0.58629811  0.10737272    -0.14500
C1412       C  0.76348742  0.54780813  0.12352638    -0.29680
H1413       H  0.73076459  0.58852526  0.07551963     0.14520
H1414       H  0.77706713  0.54636416  0.15651062     0.15090
C1415       C  0.52279197  0.90607556  0.18089094    -0.14500
C1416       C  0.55340220  0.90027096  0.14841417    -0.29680
H1417       H  0.49657388  0.93054135  0.17596090     0.14520
H1418       H  0.58265954  0.87980775  0.15254433     0.15090
C1419       C  0.54293800  0.93233996  0.27832701    -0.14500
C1420       C  0.51176066  0.90547641  0.26239577    -0.29680
H1421       H  0.57259464  0.93893779  0.25914660     0.14520
H1422       H  0.48172379  0.90162119  0.28195291     0.15090
C1423       C  0.73018489  0.00240564  0.37441082    -0.14500
C1424       C  0.71307802  0.97280584  0.40353361    -0.29680
H1425       H  0.71078012  0.03221600  0.36774458     0.14520
H1426       H  0.73286479  0.44385578  0.41484880     0.15090
C1427       C  0.81309882  0.99529215  0.37269534    -0.14500
C1428       C  0.85218047  0.97962918  0.35682221    -0.29680
H1429       H  0.81090425  0.00731458  0.40616949     0.14520
H1430       H  0.85524977  0.96571031  0.32425815     0.15090
C1431       C  0.67972934  0.51954946  0.09279832    -0.14500
C1432       C  0.71752382  0.50106625  0.07678657    -0.29680
H1433       H  0.67839761  0.53787836  0.12307108     0.14520
H1434       H  0.71694050  0.48346437  0.04594249     0.15090
C1435       C  0.79814742  0.50373747  0.06230918    -0.14500
C1436       C  0.82333973  0.53730412  0.04758736    -0.29680
H1437       H  0.80686997  0.47118197  0.05026218     0.14520
H1438       H  0.79018518  0.02303310  0.01044091     0.15090
C1439       C  0.95323908  0.69775755  0.49520882    -0.14500
C1440       C  0.92157964  0.71211950  0.46711825    -0.29680
H1441       H  0.96271299  0.71677605  0.02432315     0.14520
H1442       H  0.91587896  0.69271542  0.43811979     0.15090
C1443       C  0.91068558  0.82538362  0.00912423    -0.14500
C1444       C  0.91671135  0.79305362  0.97877583    -0.29680
H1445       H  0.88988364  0.82057263  0.03801213     0.14520
H1446       H  0.93761956  0.79964681  0.45039623     0.15090
C1447       C  0.62203665  0.67476407  0.43916846    -0.14500
C1448       C  0.61753204  0.70747375  0.46927496    -0.29680
H1449       H  0.64179615  0.67913718  0.40949248     0.14520
H1450       H  0.59625362  0.70171786  0.49779232     0.15090
C1451       C  0.61234495  0.78900044  0.47908621    -0.14500
C1452       C  0.57992935  0.80307554  0.45174055    -0.29680
H1453       H  0.61912631  0.80880984  0.50753650     0.14520
H1454       H  0.57034266  0.78318060  0.42429100     0.15090
C1455       C  0.49077926  0.56645129  0.17088640    -0.14500
C1456       C  0.52212398  0.59333252  0.18642098    -0.29680
H1457       H  0.46081997  0.56069955  0.18988015     0.14520
H1458       H  0.05185704  0.59604664  0.16636205     0.15090
C1459       C  0.51095121  0.59634102  0.26793489    -0.14500
C1460       C  0.98003668  0.60355895  0.29980789    -0.29680
H1461       H  0.53698754  0.57182082  0.27350529     0.14520
H1462       H  0.95098195  0.62419567  0.29526620     0.15090
C1463       C  0.97826248  0.65521078  0.21688310    -0.14500
C1464       C  0.96446432  0.68754456  0.24406153    -0.29680
H1465       H  0.95841803  0.64873982  0.18824794     0.14520
H1466       H  0.98445941  0.69673563  0.27168696     0.15090
C1467       C  0.55985364  0.64990292  0.22779683    -0.14500
C1468       C  0.59258261  0.64544936  0.25815175    -0.29680
H1469       H  0.56556875  0.67112625  0.19917698     0.14520
H1470       H  0.58823806  0.62574502  0.28791998     0.15090
C1471       C  0.01816765  0.62407091  0.72554242    -0.00560
O1472       O  0.95771421  0.58387869  0.87313815    -0.84560
O1473       O  0.65538594  0.95681376  0.95864817    -0.84730
O1474       O  0.59715655  0.60366909  0.91532706    -0.86390
O1475       O  0.56182569  0.98375842  0.83619841    -0.85150
O1476       O  0.51257102  0.92874577  0.85030191    -0.84740
O1477       O  0.58805403  0.62347840  0.98744080    -0.86110
O1478       O  0.64273119  0.00542799  0.90141869    -0.84590
O1479       O  0.52864049  0.57219995  0.85150335    -0.84180
Zr1480     Zr  0.56559356  0.52900363  0.90577826     2.84310
O1481       O  0.56166115  0.95529667  0.92681102    -1.06150
O1482       O  0.52146869  0.57378814  0.95091852    -1.06880
C1483       C  0.98977718  0.58541462  0.84439357     1.08550
C1484       C  0.66812539  0.97961626  0.92448843     1.08490
C1485       C  0.60073321  0.63107111  0.94754085     1.11470
C1486       C  0.53920581  0.94995289  0.82465760     1.09250
H1487       H  0.62032351  0.53403130  0.97939934     0.34810
O1488       O  0.59033308  0.52413026  0.97816569    -1.27100
H1489       H  0.98154679  0.00537683  0.87344901     0.34480
O1490       O  0.49294642  0.00610935  0.90295029    -1.28780
O1491       O  0.57778027  0.92068770  0.57478275    -0.84550
O1492       O  0.88132545  0.55154083  0.99498593    -0.86050
O1493       O  0.61414106  0.55110185  0.56347730    -0.84630
O1494       O  0.52960818  0.86324522  0.93098525    -0.84680
O1495       O  0.91694653  0.94934715  0.89098130    -0.84390
O1496       O  0.50374549  0.63845150  0.51761109    -0.84200
O1497       O  0.97136147  0.51666065  0.61240309    -0.84570
O1498       O  0.93294391  0.89704239  0.53361153    -0.84030
O1499       O  0.52167561  0.57117255  0.59901386    -0.85100
O1500       O  0.94453889  0.87707982  0.96237301    -0.84250
O1501       O  0.64006366  0.98014380  0.54167666    -0.84650
O1502       O  0.94938051  0.62685358  0.96736931    -0.84370
O1503       O  0.89285719  0.01998254  0.90471846    -0.84020
O1504       O  0.58627700  0.87523432  0.97809134    -0.84430
O1505       O  0.50601637  0.93142263  0.59768321    -0.84730
O1506       O  0.88903297  0.99399669  0.54426504    -0.86070
Zr1507     Zr  0.58462073  0.95081718  0.99978435     2.83100
Zr1508     Zr  0.94883985  0.55092378  0.94804767     2.83500
Zr1509     Zr  0.54549803  0.56803076  0.52314290     2.84090
Zr1510     Zr  0.48771252  0.93343329  0.92600392     2.83360
Zr1511     Zr  0.96600314  0.97138859  0.54319792     2.84220
O1512       O  0.94310721  0.97660970  0.97137369    -1.06640
O1513       O  0.53942659  0.99392723  0.54342773    -1.06140
C1514       C  0.54614146  0.91892097  0.60387867     1.08520
C1515       C  0.86493082  0.52291362  0.52520708     1.11140
C1516       C  0.64139041  0.51777331  0.56627734     1.08690
C1517       C  0.56352813  0.85034083  0.95363095     1.09050
C1518       C  0.88902269  0.98222188  0.88812161     1.08640
C1519       C  0.97074868  0.65129342  0.99338257     1.08190
C1520       C  0.49534530  0.54974409  0.62471694     1.08610
C1521       C  0.92967374  0.86986905  0.50107257     1.08130
H1522       H  0.95159406  0.56487591  0.53910389     0.34810
O1523       O  0.97007201  0.54617766  0.52092054    -1.27740
H1524       H  0.51214614  0.89742440  0.50962488     0.34830
O1525       O  0.51182802  0.92802777  0.99873745    -1.29120
C1526       C  0.76188515  0.50579036  0.60162537    -0.00560
O1527       O  0.66486208  0.66922418  0.78259203    -0.84560
O1528       O  0.75168305  0.79575209  0.58423694    -0.84730
O1529       O  0.62934747  0.76415722  0.67913481    -0.86390
O1530       O  0.71759172  0.65422832  0.63444246    -0.85150
O1531       O  0.78809235  0.63093488  0.65119643    -0.84740
O1532       O  0.64110939  0.81846791  0.72832150    -0.86110
O1533       O  0.69695093  0.74618323  0.59828191    -0.84590
O1534       O  0.64475859  0.67901765  0.71043387    -0.84180
Zr1535     Zr  0.70004857  0.72233797  0.67434603     2.84310
O1536       O  0.77337627  0.72818406  0.65294862    -1.06150
O1537       O  0.69427665  0.74532852  0.74699257    -1.06880
C1538       C  0.63734936  0.66582946  0.75022757     1.08550
C1539       C  0.71827763  0.77255186  0.57251291     1.08490
C1540       C  0.61624183  0.79698275  0.70288578     1.11470
C1541       C  0.75116520  0.62723364  0.63213356     1.09250
H1542       H  0.70286170  0.81418801  0.65705408     0.34810
O1543       O  0.72179571  0.79585698  0.67535836    -1.27100
H1544       H  0.73464628  0.64697146  0.71930014     0.34480
O1545       O  0.74425487  0.67698652  0.72016926    -1.28780
O1546       O  0.87022739  0.83486700  0.66277785    -0.84550
O1547       O  0.78463852  0.70651508  0.86033617    -0.86050
O1548       O  0.71867129  0.88688317  0.70435933    -0.84630
O1549       O  0.84807366  0.69054637  0.62157888    -0.84680
O1550       O  0.81832292  0.61629598  0.74563505    -0.84390
O1551       O  0.68392271  0.80971483  0.82300719    -0.84200
O1552       O  0.81820006  0.84906371  0.80666237    -0.84570
O1553       O  0.90631537  0.73738422  0.76513382    -0.84030
O1554       O  0.74752506  0.87210271  0.78995542    -0.85100
O1555       O  0.89428557  0.68209257  0.71701067    -0.84250
O1556       O  0.77060195  0.87676209  0.64985020    -0.84650
O1557       O  0.69621881  0.73843997  0.84634707    -0.84370
O1558       O  0.76466415  0.62581429  0.79877263    -0.84020
O1559       O  0.83614052  0.76188457  0.59821662    -0.84430
O1560       O  0.89043694  0.82379764  0.73477295    -0.84730
O1561       O  0.84023029  0.75510733  0.84598114    -0.86070
Zr1562     Zr  0.79599135  0.80098680  0.65280487     2.83100
Zr1563     Zr  0.73942714  0.70134054  0.79247369     2.83500
Zr1564     Zr  0.71696363  0.81760523  0.74831410     2.84090
Zr1565     Zr  0.81800463  0.68306986  0.69724985     2.83360
Zr1566     Zr  0.83577801  0.77918015  0.76990601     2.84220
O1567       O  0.81349387  0.70588602  0.76977157    -1.06640
O1568       O  0.79054324  0.82411039  0.72522977    -1.06140
C1569       C  0.89775053  0.83791287  0.69530029     1.08520
C1570       C  0.81860157  0.72899995  0.87181961     1.11140
C1571       C  0.74228414  0.90063911  0.67119292     1.08690
C1572       C  0.84920984  0.72208612  0.59229994     1.09050
C1573       C  0.79496769  0.60291183  0.77923745     1.08640
C1574       C  0.68217891  0.77796353  0.85208665     1.08190
C1575       C  0.78468329  0.87620156  0.80808080     1.08610
C1576       C  0.91929327  0.70414774  0.74193945     1.08130
H1577       H  0.76214511  0.78496547  0.82282738     0.34810
O1578       O  0.76286063  0.77407505  0.79325045    -1.27740
H1579       H  0.87073880  0.75606285  0.68603517     0.34830
O1580       O  0.84089295  0.75552851  0.69732231    -1.29120
C1581       C  0.64251739  0.75043688  0.97064324    -0.00560
C1582       C  0.51782041  0.87764099  0.72116942    -0.00560
C1583       C  0.89090679  0.75028892  0.97529062    -0.00560
C1584       C  0.77014504  0.99365050  0.84512140    -0.00560
C1585       C  0.66351673  0.78628366  0.89608981    -0.14500
C1586       C  0.67041025  0.75621955  0.92911027    -0.29680
H1587       H  0.64295211  0.81538418  0.89995328     0.14520
H1588       H  0.69486017  0.73007904  0.92412976     0.15090
C1589       C  0.70107485  0.77660541  0.52657794    -0.14500
C1590       C  0.67424078  0.74529703  0.51090164    -0.29680
H1591       H  0.70677474  0.80651546  0.50749682     0.14520
H1592       H  0.67128727  0.71512577  0.53042705     0.15090
C1593       C  0.83553290  0.72457623  0.91774964    -0.14500
C1594       C  0.86220193  0.75560255  0.93407439    -0.29680
H1595       H  0.82903421  0.69481120  0.93678860     0.14520
H1596       H  0.86605437  0.78573074  0.91465901     0.15090
C1597       C  0.86714179  0.71345343  0.54808857    -0.14500
C1598       C  0.86058625  0.74383748  0.51536256    -0.29680
H1599       H  0.88783378  0.68444355  0.54409831     0.14520
H1600       H  0.83589329  0.76977257  0.52027730     0.15090
C1601       C  0.77473231  0.95459550  0.81562024    -0.14500
C1602       C  0.78659557  0.91508208  0.83343183    -0.29680
H1603       H  0.76789496  0.95816112  0.78065680     0.14520
H1604       H  0.79445805  0.91101861  0.86807488     0.15090
C1605       C  0.77025681  0.53307540  0.81210757    -0.14500
C1606       C  0.80410428  0.55885345  0.79911543    -0.29680
H1607       H  0.73800377  0.54158303  0.79867109     0.14520
H1608       H  0.83786572  0.55083321  0.80783289     0.15090
C1609       C  0.97452472  0.85208299  0.71830913    -0.14500
C1610       C  0.94170157  0.85839805  0.68812198    -0.29680
H1611       H  0.96864695  0.82939178  0.74573764     0.14520
H1612       H  0.94615433  0.87951898  0.65935866     0.15090
C1613       C  0.57001208  0.81374752  0.70029084    -0.14500
C1614       C  0.55619493  0.84529726  0.72854150    -0.29680
H1615       H  0.55023466  0.80574938  0.67211477     0.14520
H1616       H  0.57585286  0.85049703  0.75760194     0.15090
C1617       C  0.73652306  0.94700762  0.65524401    -0.14500
C1618       C  0.76734327  0.96506094  0.62829174    -0.29680
H1619       H  0.70657859  0.96532111  0.66359188     0.14520
H1620       H  0.79740500  0.94573953  0.62245373     0.15090
C1621       C  0.74786998  0.58753508  0.60719480    -0.14500
C1622       C  0.76656112  0.54975591  0.62311348    -0.29680
H1623       H  0.72919416  0.58904579  0.57697776     0.14520
H1624       H  0.78474528  0.55011102  0.65376162     0.15090
C1625       C  0.52457943  0.90703147  0.68078555    -0.14500
C1626       C  0.55502978  0.90083650  0.64817704    -0.29680
H1627       H  0.49856867  0.93170588  0.67581626     0.14520
H1628       H  0.58412869  0.88013264  0.65228802     0.15090
C1629       C  0.54401293  0.93267228  0.77892769    -0.14500
C1630       C  0.51289391  0.90607716  0.76244506    -0.29680
H1631       H  0.57393348  0.93913527  0.76011764     0.14520
H1632       H  0.48264430  0.90230889  0.78167990     0.15090
C1633       C  0.72543735  0.98739366  0.86792437    -0.14500
C1634       C  0.71546483  0.97763260  0.91031486    -0.29680
H1635       H  0.69783447  0.99083123  0.84540111     0.14520
H1636       H  0.73224768  0.44400462  0.91480866     0.15090
C1637       C  0.81025021  0.99571253  0.87471750    -0.14500
C1638       C  0.84994764  0.97779146  0.86241327    -0.29680
H1639       H  0.80741060  0.01446191  0.90475062     0.14520
H1640       H  0.85505357  0.96105223  0.83154469     0.15090
C1641       C  0.68090381  0.52091859  0.59200557    -0.14500
C1642       C  0.71952809  0.50440458  0.57596950    -0.29680
H1643       H  0.67862610  0.53641786  0.62387169     0.14520
H1644       H  0.72094685  0.49116006  0.54295053     0.15090
C1645       C  0.80218271  0.49829273  0.57147558    -0.14500
C1646       C  0.81858074  0.52787005  0.54180314    -0.29680
H1647       H  0.82175562  0.46849451  0.57761391     0.14520
H1648       H  0.79030187  0.02704349  0.51126020     0.15090
C1649       C  0.95442589  0.69744601  0.99602961    -0.14500
C1650       C  0.92288478  0.71181230  0.96778157    -0.29680
H1651       H  0.96183510  0.71722639  0.52330652     0.14520
H1652       H  0.91740948  0.69255856  0.93863472     0.15090
C1653       C  0.90940117  0.82594151  0.50834367    -0.14500
C1654       C  0.91532816  0.79350892  0.47804827    -0.29680
H1655       H  0.88869486  0.82119082  0.53730876     0.14520
H1656       H  0.93913914  0.79922233  0.95123757     0.15090
C1657       C  0.62089835  0.67487108  0.93919036    -0.14500
C1658       C  0.61601268  0.70784998  0.96895237    -0.29680
H1659       H  0.64093616  0.67902601  0.90967119     0.14520
H1660       H  0.59443051  0.70229457  0.99728366     0.15090
C1661       C  0.61142385  0.78953608  0.97860432    -0.14500
C1662       C  0.57928367  0.80400484  0.95111973    -0.29680
H1663       H  0.61816825  0.80920062  0.00716742     0.14520
H1664       H  0.56966004  0.78431050  0.92353764     0.15090
C1665       C  0.49122112  0.56685186  0.67057595    -0.14500
C1666       C  0.52265422  0.59353329  0.68639354    -0.29680
H1667       H  0.46116921  0.56119442  0.68944653     0.14520
H1668       H  0.05272264  0.59657911  0.66601470     0.15090
C1669       C  0.51136328  0.59664121  0.76816073    -0.14500
C1670       C  0.98176765  0.60380121  0.80003030    -0.29680
H1671       H  0.53735136  0.57211365  0.77388550     0.14520
H1672       H  0.95264776  0.62435266  0.79551411     0.15090
C1673       C  0.97953046  0.65576311  0.71722016    -0.14500
C1674       C  0.96568698  0.68806605  0.74446326    -0.29680
H1675       H  0.95963867  0.64936213  0.68860470     0.14520
H1676       H  0.98567534  0.69723846  0.77209908     0.15090
C1677       C  0.56074258  0.64990058  0.72792419    -0.14500
C1678       C  0.59355768  0.64537308  0.75822854    -0.29680
H1679       H  0.56650249  0.67113076  0.69932070     0.14520
H1680       H  0.58920147  0.62563301  0.78797242     0.15090
loop_ 
_geom_bond_atom_site_label_1 
_geom_bond_atom_site_label_2 
_geom_bond_distance 
_geom_bond_site_symmetry_2 
_ccdc_geom_bond_type 
C1          C203   1.521       .  S
C1         C1036   1.539       .  S
C1         C1039   1.517       .  S
C1         C1047   1.539       .  S
O2          Zr38   2.476       .  S
O2           C13   1.298       .  A
O3          Zr37   2.491       .  S
O3           C14   1.301       .  A
O4          Zr10   2.515       .  S
O4           C15   1.307       .  A
O5         Zr430   2.506       .  S
O5           C16   1.304       .  A
O6          Zr40   2.413   1_455  S
O6           C16   1.289       .  A
O7         Zr249   2.392       .  S
O7           C15   1.284       .  A
O8         Zr430   2.415       .  S
O8           C14   1.289       .  A
O9          Zr10   2.367       .  S
O9          C853   1.282   1_455  A
Zr10        O425   2.506   1_545  S
Zr10        O428   2.417       .  S
Zr10         O12   2.342       .  S
Zr10         O18   2.326       .  S
Zr10        O431   2.350   1_545  S
Zr10        O440   2.340   1_455  S
O11         Zr37   2.331       .  S
O11         Zr40   2.351   1_455  S
O11        Zr430   2.349       .  S
O12        Zr878   2.326   1_455  S
O12        Zr249   2.336       .  S
C13         O849   1.281       .  A
C13         C200   1.467       .  S
C14         C164   1.495       .  S
C15         C187   1.496       .  S
C16         C159   1.498       .  S
H17          O18   0.965       .  S
O18        Zr457   2.342   1_545  S
O18        Zr249   2.345       .  S
H19         O860   0.964       .  S
O20         Zr40   2.317       .  S
O20        Zr430   2.340   1_655  S
O20       Zr1298   2.340       .  S
O20         H859   0.964       .  S
O21        Zr247   2.469       .  S
O21          C44   1.296       .  A
O22         Zr38   2.479       .  S
O22         C255   1.297       .  A
O23         Zr39   2.470       .  S
O23          C46   1.298       .  A
O24         Zr40   2.463   1_455  S
O24          C47   1.294       .  A
O25        Zr880   2.476       .  S
O25          C48   1.299       .  A
O26         Zr39   2.464       .  S
O26        C1099   1.294   1_454  A
O27        Zr461   2.506   1_545  S
O27         C890   1.304       .  A
O28         Zr41   2.522       .  S
O28          C51   1.308       .  A
O29         Zr39   2.406       .  S
O29          C50   1.287   1_455  A
O30        Zr880   2.396       .  S
O30         C261   1.285       .  A
O31        Zr247   2.338       .  S
O31         C466   1.275       .  A
O32         Zr38   2.408       .  S
O32          C49   1.289       .  A
O33        Zr458   2.347       .  S
O33          C48   1.276       .  A
O34         Zr37   2.408       .  S
O34          C47   1.289       .  A
O35        Zr881   2.373   1_455  S
O35          C44   1.282       .  A
O36         Zr41   2.414       .  S
O36         C465   1.288       .  A
Zr37        O231   2.477       .  S
Zr37        O241   2.342       .  S
Zr37         O55   2.328       .  S
Zr37        O438   2.345       .  S
Zr37        O253   2.332       .  S
Zr38        O453   2.339       .  S
Zr38        O852   2.327       .  S
Zr38       O1280   2.338       .  S
Zr38        O462   2.341   1_545  S
Zr38        O263   2.337       .  S
Zr39        O217   2.397   1_554  S
Zr39        O222   2.335   1_554  S
Zr39        O228   2.348   1_554  S
Zr39        O463   2.318   1_545  S
Zr39        O893   2.353   1_455  S
Zr40        O865   2.476       .  S
Zr40        O870   2.397       .  S
Zr40         O55   2.338   1_655  S
Zr40        O882   2.345       .  S
Zr41        O447   2.502       .  S
Zr41        O875   2.368       .  S
Zr41        O252   2.328   1_554  S
Zr41        O883   2.335       .  S
Zr41       O1105   2.342       .  S
Zr41        O473   2.353       .  S
O42        Zr458   2.346       .  S
O42        Zr880   2.347       .  S
O42        Zr251   2.332       .  S
O43        Zr247   2.331       .  S
O43        Zr459   2.320       .  S
O43        Zr881   2.335   1_455  S
C44         C156   1.469       .  S
C45         O232   1.299   1_554  A
C45         O456   1.288   1_545  A
C45         C176   1.481       .  S
C46         O451   1.275   1_545  A
C46         C171   1.446       .  S
C47         C192   1.483       .  S
C48         C168   1.446       .  S
C49        O1076   1.295       .  A
C49         C179   1.486       .  S
C50         O867   1.305       .  A
C50         C195   1.500       .  S
C51         O240   1.284   1_554  A
C51         C183   1.496       .  S
H52          O53   0.966       .  S
O53        Zr248   2.329   1_554  S
O53        Zr879   2.342       .  S
O53        Zr461   2.348   1_545  S
H54         O265   0.964       .  S
O55       Zr1091   2.343   1_455  S
O55         H264   0.964       .  S
C56         C152   1.516       .  S
C56         C172   1.512       .  S
C56         C175   1.542       .  S
C56         C568   1.537   1_545  S
O57         Zr93   2.512       .  S
O57          C68   1.306       .  A
O58         Zr92   2.508       .  S
O58          C69   1.305       .  A
O59         Zr65   2.474       .  S
O59          C70   1.297       .  A
O60         Zr65   2.480       .  S
O60          C71   1.299       .  A
O61         Zr95   2.345       .  S
O61          C71   1.276       .  A
O62         Zr94   2.394       .  S
O62          C70   1.286       .  A
O63         Zr65   2.409       .  S
O63          C69   1.288       .  A
O64         Zr65   2.393       .  S
O64          C68   1.285       .  A
Zr65         O66   2.318       .  S
Zr65         O67   2.334       .  S
Zr65         O75   2.350       .  S
Zr65         O73   2.353       .  S
O66         Zr92   2.335       .  S
O66         Zr95   2.331       .  S
O67         Zr93   2.340       .  S
O67         Zr94   2.328       .  S
C68         C208   1.495       .  S
C69         C119   1.499       .  S
C70         C143   1.485       .  S
C71         C151   1.448       .  S
H72          O73   0.966       .  S
O73         Zr92   2.350       .  S
O73         Zr94   2.334       .  S
H74          O75   0.966       .  S
O75         Zr93   2.333       .  S
O75         Zr95   2.345       .  S
O76         Zr92   2.518       .  S
O76          C99   1.307       .  A
O77         Zr93   2.503       .  S
O77         C100   1.304       .  A
O78         Zr94   2.487       .  S
O78         C101   1.300       .  A
O79         Zr95   2.473       .  S
O79         C102   1.297       .  A
O80         Zr95   2.478       .  S
O80         C103   1.298       .  A
O81         Zr94   2.477       .  S
O81         C104   1.298       .  A
O82         Zr96   2.470       .  S
O82         C105   1.298       .  A
O83         Zr96   2.468       .  S
O83         C106   1.295       .  A
O84         Zr94   2.343       .  S
O84         C105   1.275       .  A
O85         Zr95   2.396       .  S
O85         C106   1.286       .  A
O86         Zr92   2.412       .  S
O86         C101   1.289       .  A
O87         Zr93   2.375       .  S
O87         C104   1.283       .  A
O88         Zr93   2.417       .  S
O88         C103   1.289       .  A
O89         Zr92   2.370       .  S
O89         C102   1.282       .  A
O90         Zr96   2.393       .  S
O90          C99   1.285       .  A
O91         Zr96   2.414       .  S
O91         C100   1.289       .  A
Zr92         O98   2.332       .  S
Zr92        O110   2.343       .  S
Zr93         O97   2.350       .  S
Zr93        O108   2.340       .  S
Zr94         O98   2.340       .  S
Zr94        O108   2.335       .  S
Zr95         O97   2.329       .  S
Zr95        O110   2.326       .  S
Zr96         O97   2.347       .  S
Zr96         O98   2.345       .  S
Zr96        O110   2.337       .  S
Zr96        O108   2.318       .  S
C99         C140   1.495       .  S
C100        C123   1.496       .  S
C101        C147   1.493       .  S
C102        C127   1.470       .  S
C103        C136   1.479       .  S
C104        C115   1.469       .  S
C105        C132   1.448       .  S
C106        C204   1.481       .  S
H107        O108   0.964       .  S
H109        O110   0.964       .  S
C111        C116   1.519       .  S
C111        C188   1.542       .  S
C111        C191   1.525       .  S
C111        C330   1.540       .  S
C112        C144   1.526       .  S
C112        C155   1.518       .  S
C112        C160   1.540       .  S
C112        C979   1.540   1_455  S
C113        C124   1.539       .  S
C113        C180   1.529       .  S
C113        C338   1.519       .  S
C113        C394   1.545       .  S
C114        C131   1.516       .  S
C114        C163   1.535       .  S
C114        C167   1.517       .  S
C114        C555   1.544       .  S
C115        C116   1.359       .  D
C115        H117   1.080       .  S
C116        H118   1.088       .  S
C119        C120   1.364       .  D
C119        H121   1.086       .  S
C120        C321   1.541   1_554  S
C120        H122   1.088       .  S
C123        C124   1.362       .  D
C123        H125   1.086       .  S
C124        H126   1.088       .  S
C127        C128   1.359       .  D
C127        H129   1.081       .  S
C128        C323   1.519   1_554  S
C128        H130   1.088       .  S
C131        C132   1.357       .  D
C131        H133   1.088       .  S
C132        H134   1.083       .  S
C135        C534   1.541   1_545  S
C135        C136   1.354       .  D
C135        H137   1.089       .  S
C136        H138   1.083       .  S
C139        C952   1.540       .  S
C139        C140   1.370       .  D
C139        H141   1.088       .  S
C140        H142   1.084       .  S
C143        C144   1.356       .  D
C143        H145   1.086       .  S
C144        H146   1.088       .  S
C147        C148   1.359       .  D
C147        H149   1.085       .  S
C148        C476   1.534       .  S
C148        H150   1.088       .  S
C151        C152   1.355       .  D
C151        H153   1.086       .  S
C152        H154   1.088       .  S
C155        C156   1.358       .  D
C155        H157   1.088   1_455  S
C156        H158   1.081       .  S
C159        C160   1.362       .  D
C159        H161   1.086       .  S
C160        H162   1.089   1_455  S
C163        C164   1.359       .  D
C163        H165   1.088       .  S
C164        H586   1.086       .  S
H166        C584   1.086       .  S
C167        C168   1.353       .  D
C167        H169   1.088       .  S
C168        H170   1.086       .  S
C171        C172   1.357       .  D
C171        H173   1.084       .  S
C172        H174   1.089   1_545  S
C175        C176   1.354       .  D
C175        H177   1.089   1_545  S
C176        H598   1.083       .  S
H178        C596   1.083       .  S
C179        C180   1.353       .  D
C179        H391   1.086       .  S
C180        H182   1.088       .  S
H181        C389   1.086   1_554  S
C183        C184   1.372   1_554  D
C183        H185   1.084       .  S
C184        C323   1.541       .  S
C184        H396   1.088       .  S
H186        C394   1.087       .  S
C187        C188   1.370       .  D
C187        H189   1.084       .  S
C188        H190   1.088       .  S
C191        C192   1.351       .  D
C191        H193   1.088       .  S
C192        H194   1.086       .  S
C195        C196   1.364   1_655  D
C195        H197   1.086       .  S
C196        C841   1.541       .  S
C196       H1038   1.088       .  S
H198       C1036   1.088       .  S
C199        C841   1.518       .  S
C199       C1040   1.360   1_455  D
C199        H201   1.088       .  S
C200       C1039   1.360       .  D
C200        H202   1.080       .  S
C203        C204   1.354       .  D
C203        H205   1.088       .  S
C204        H206   1.086       .  S
C207        C841   1.541       .  S
C207        C208   1.369       .  D
C207        H209   1.088       .  S
C208        H210   1.084       .  S
C211       C1246   1.544       .  S
C211       C1249   1.519       .  S
C211        C413   1.524       .  S
C211       C1257   1.541       .  S
O212       Zr248   2.477       .  S
O212        C223   1.298       .  A
O213       Zr247   2.488   1_556  S
O213        C224   1.299       .  A
O214       Zr220   2.514       .  S
O214        C225   1.306       .  A
O215       Zr640   2.502       .  S
O215        C226   1.304       .  A
O216       Zr250   2.414   1_455  S
O216        C226   1.289       .  A
O217        C225   1.285       .  A
O218       Zr640   2.414       .  S
O218        C224   1.290       .  A
O219       Zr220   2.370       .  S
O219       C1063   1.282   1_455  A
Zr220       O635   2.504   1_545  S
Zr220       O638   2.414       .  S
Zr220       O641   2.349   1_545  S
Zr220       O222   2.342       .  S
Zr220       O650   2.343   1_455  S
Zr220       O228   2.332       .  S
O221       Zr640   2.349       .  S
O221       Zr247   2.333   1_556  S
O221       Zr250   2.354   1_455  S
O222      Zr1088   2.326   1_455  S
C223       O1059   1.283       .  A
C223        C410   1.468       .  S
C224        C374   1.497       .  S
C225        C397   1.497       .  S
C226        C369   1.497       .  S
H227        O228   0.966       .  S
O228       Zr667   2.344   1_546  S
H229       O1070   0.964       .  S
O230       Zr640   2.338   1_655  S
O230      Zr1508   2.336       .  S
O230       Zr250   2.316       .  S
O230       H1069   0.964       .  S
O231        C254   1.298       .  A
O232       Zr248   2.481       .  S
O233       Zr249   2.478       .  S
O233        C256   1.300       .  A
O234       Zr250   2.463   1_455  S
O234        C257   1.295       .  A
O235      Zr1090   2.470       .  S
O235        C258   1.298       .  A
O236       Zr249   2.465       .  S
O236        C889   1.295   1_455  A
O237       Zr671   2.513   1_545  S
O237       C1100   1.306       .  A
O238       Zr251   2.526       .  S
O238        C261   1.309       .  A
O239       Zr249   2.412       .  S
O239        C260   1.288   1_455  A
O240      Zr1090   2.391       .  S
O241        C676   1.276       .  A
O242       Zr248   2.397       .  S
O242        C259   1.286       .  A
O243       Zr668   2.342       .  S
O243        C258   1.274       .  A
O244       Zr247   2.405   1_556  S
O244        C257   1.288       .  A
O245      Zr1091   2.365   1_455  S
O245        C254   1.281       .  A
O246       Zr251   2.417       .  S
O246        C675   1.289       .  A
Zr247       O648   2.342   1_554  S
Zr247       O265   2.330       .  S
Zr248       O663   2.341       .  S
Zr248      O1062   2.324       .  S
Zr248      O1490   2.340       .  S
Zr248       O672   2.346   1_545  S
Zr249       O673   2.317   1_545  S
Zr249      O1103   2.352   1_455  S
Zr250      O1075   2.477       .  S
Zr250      O1080   2.398       .  S
Zr250      O1092   2.347       .  S
Zr250       O265   2.338   1_656  S
Zr251       O657   2.508       .  S
Zr251      O1085   2.367       .  S
Zr251      O1093   2.338       .  S
Zr251       O895   2.342       .  S
Zr251       O683   2.351       .  S
O252       Zr668   2.346       .  S
O252      Zr1090   2.344       .  S
O253       Zr669   2.318       .  S
O253      Zr1091   2.332   1_455  S
C254        C366   1.471       .  S
C255        O666   1.292   1_545  A
C255        C386   1.494       .  S
C256        O661   1.274   1_545  A
C256        C381   1.442       .  S
C257        C402   1.481       .  S
C258        C378   1.439       .  S
C259        O866   1.296   1_556  A
C259        C389   1.486       .  S
C260       O1077   1.306       .  A
C260        C405   1.503       .  S
C261        C393   1.499       .  S
H262        O263   0.967       .  S
O263      Zr1089   2.352       .  S
O263       Zr671   2.348   1_545  S
O265       Zr881   2.342   1_455  S
C266        C778   1.529   1_545  S
C266        C362   1.507       .  S
C266        C382   1.523       .  S
C266        C385   1.530       .  S
O267       Zr303   2.515       .  S
O267        C278   1.307       .  A
O268       Zr302   2.505       .  S
O268        C279   1.304       .  A
O269       Zr275   2.470       .  S
O269        C280   1.295       .  A
O270       Zr275   2.469       .  S
O270        C281   1.298       .  A
O271       Zr305   2.331       .  S
O271        C281   1.273       .  A
O272       Zr304   2.394       .  S
O272        C280   1.286       .  A
O273       Zr275   2.410       .  S
O273        C279   1.288       .  A
O274       Zr275   2.392       .  S
O274        C278   1.284       .  A
Zr275       O276   2.319       .  S
Zr275       O277   2.332       .  S
Zr275       O285   2.350       .  S
Zr275       O283   2.351       .  S
O276       Zr302   2.335       .  S
O276       Zr305   2.331       .  S
O277       Zr303   2.342       .  S
O277       Zr304   2.324       .  S
C278        C418   1.496       .  S
C279        C329   1.498       .  S
C280        C353   1.484       .  S
C281        C361   1.434       .  S
H282        O283   0.966       .  S
O283       Zr302   2.353       .  S
O283       Zr304   2.332       .  S
H284        O285   0.966       .  S
O285       Zr303   2.326       .  S
O285       Zr305   2.344       .  S
O286       Zr302   2.521       .  S
O286        C309   1.308       .  A
O287       Zr303   2.504       .  S
O287        C310   1.304       .  A
O288       Zr304   2.490       .  S
O288        C311   1.300       .  A
O289       Zr305   2.473       .  S
O289        C312   1.297       .  A
O290       Zr305   2.477       .  S
O290        C313   1.298       .  A
O291       Zr304   2.488       .  S
O291        C314   1.300       .  A
O292       Zr306   2.466       .  S
O292        C315   1.297       .  A
O293       Zr306   2.476       .  S
O293        C316   1.297       .  A
O294       Zr304   2.327       .  S
O294        C315   1.272       .  A
O295       Zr305   2.391       .  S
O295        C316   1.285       .  A
O296       Zr302   2.412       .  S
O296        C311   1.289       .  A
O297       Zr303   2.365       .  S
O297        C314   1.281       .  A
O298       Zr303   2.419       .  S
O298        C313   1.289       .  A
O299       Zr302   2.370       .  S
O299        C312   1.282       .  A
O300       Zr306   2.390       .  S
O300        C309   1.284       .  A
O301       Zr306   2.416       .  S
O301        C310   1.290       .  A
Zr302       O308   2.327       .  S
Zr302       O320   2.343       .  S
Zr303       O307   2.348       .  S
Zr303       O318   2.343       .  S
Zr304       O308   2.340       .  S
Zr304       O318   2.340       .  S
Zr305       O307   2.323       .  S
Zr305       O320   2.323       .  S
Zr306       O307   2.343       .  S
Zr306       O308   2.344       .  S
Zr306       O320   2.334       .  S
Zr306       O318   2.322       .  S
C309        C350   1.495       .  S
C310        C333   1.497       .  S
C311        C357   1.494       .  S
C312        C337   1.470       .  S
C313        C346   1.480       .  S
C314        C325   1.471       .  S
C315        C342   1.429       .  S
C316        C414   1.483       .  S
H317        O318   0.964       .  S
H319        O320   0.964       .  S
C321        C326   1.520       .  S
C321        C398   1.543       .  S
C321        C401   1.522       .  S
C322       C1189   1.540   1_455  S
C322        C354   1.524       .  S
C322        C365   1.519       .  S
C322        C370   1.539       .  S
C323        C334   1.540       .  S
C323        C390   1.527       .  S
C324        C341   1.506       .  S
C324        C765   1.528       .  S
C324        C373   1.530       .  S
C324        C377   1.523       .  S
C325        C326   1.363       .  D
C325        H327   1.080       .  S
C326        H328   1.088       .  S
C329        C330   1.363       .  D
C329        H331   1.086       .  S
C330        H332   1.088       .  S
C333        C334   1.362       .  D
C333        H335   1.086       .  S
C334        H336   1.089       .  S
C337        C338   1.359       .  D
C337        H339   1.080       .  S
C338        H340   1.088       .  S
C341        C342   1.352       .  D
C341        H343   1.088       .  S
C342        H344   1.086       .  S
C345        C744   1.542   1_545  S
C345        C346   1.354       .  D
C345        H347   1.089       .  S
C346        H348   1.083       .  S
C349       C1162   1.540       .  S
C349        C350   1.371       .  D
C349        H351   1.088       .  S
C350        H352   1.084       .  S
C353        C354   1.354       .  D
C353        H355   1.086       .  S
C354        H356   1.088       .  S
C357        C358   1.359       .  D
C357        H359   1.085       .  S
C358        C686   1.535       .  S
C358        H360   1.088       .  S
C361        C362   1.355       .  D
C361        H363   1.086       .  S
C362        H364   1.088       .  S
C365        C366   1.360       .  D
C365        H367   1.088   1_455  S
C366        H368   1.081       .  S
C369        C370   1.362       .  D
C369        H371   1.086       .  S
C370        H372   1.089   1_455  S
C373        C374   1.353       .  D
C373        H375   1.090       .  S
C374        H796   1.085       .  S
H376        C794   1.086       .  S
C377        C378   1.359       .  D
C377        H379   1.087       .  S
C378        H380   1.084       .  S
C381        C382   1.362       .  D
C381        H383   1.084       .  S
C382        H384   1.087   1_545  S
C385        C386   1.349       .  D
C385        H387   1.090       .  S
C386        H808   1.085       .  S
H388        C806   1.083       .  S
C389        C390   1.355       .  D
C390        H392   1.088       .  S
C393        C394   1.373       .  D
C393        H395   1.084       .  S
C397        C398   1.370       .  D
C397        H399   1.084       .  S
C398        H400   1.088       .  S
C401        C402   1.352       .  D
C401        H403   1.088   1_556  S
C402        H404   1.086       .  S
C405        C406   1.365   1_655  D
C405        H407   1.086       .  S
C406       C1051   1.544       .  S
C406       H1248   1.088       .  S
H408       C1246   1.088       .  S
C409       C1051   1.519       .  S
C409       C1250   1.361   1_455  D
C409        H411   1.088       .  S
C410       C1249   1.359       .  D
C410        H412   1.080       .  S
C413        C414   1.356       .  D
C413        H415   1.088       .  S
C414        H416   1.086       .  S
C417       C1051   1.542       .  S
C417        C418   1.370       .  D
C417        H419   1.088       .  S
C418        H420   1.084       .  S
C421       C1456   1.538       .  S
C421       C1459   1.519       .  S
C421        C623   1.521       .  S
C421       C1467   1.538       .  S
O422       Zr458   2.478       .  S
O422        C433   1.298       .  A
O423       Zr457   2.487       .  S
O423        C434   1.300       .  A
O424       Zr430   2.512       .  S
O424        C435   1.306       .  A
O425        C436   1.305       .  A
O426       Zr460   2.412   1_455  S
O426        C436   1.289       .  A
O427       Zr669   2.395       .  S
O427        C435   1.285       .  A
O428        C434   1.290   1_545  A
O429       Zr430   2.371       .  S
O429       C1273   1.282   1_455  A
Zr430       O432   2.342       .  S
Zr430       O438   2.332       .  S
O431       Zr457   2.330       .  S
O431       Zr460   2.350   1_455  S
O432      Zr1298   2.327   1_455  S
O432       Zr669   2.332       .  S
C433       O1269   1.282       .  A
C433        C620   1.469       .  S
C434        C584   1.494       .  S
C435        C607   1.496       .  S
C436        C579   1.498       .  S
H437        O438   0.966       .  S
O438       Zr669   2.348       .  S
H439       O1280   0.964       .  S
O440       Zr878   2.339       .  S
O440       Zr460   2.319   1_545  S
O440       H1279   0.964       .  S
O441       Zr667   2.473       .  S
O441        C464   1.297       .  A
O442       Zr458   2.476       .  S
O442        C675   1.298       .  A
O443       Zr459   2.467       .  S
O443        C466   1.297       .  A
O444       Zr460   2.465   1_455  S
O444        C467   1.295       .  A
O445      Zr1300   2.478       .  S
O445        C468   1.299       .  A
O446       Zr459   2.465       .  S
O446       C1519   1.295   1_454  A
O447       C1310   1.304       .  A
O448       Zr461   2.516       .  S
O448        C471   1.307       .  A
O449       Zr459   2.407       .  S
O449        C470   1.288   1_455  A
O450      Zr1300   2.395       .  S
O450        C681   1.285       .  A
O451       Zr667   2.338       .  S
O452       Zr458   2.393       .  S
O452        C469   1.285       .  A
O453        C468   1.274   1_545  A
O454       Zr457   2.404       .  S
O454        C467   1.288       .  A
O455      Zr1301   2.370   1_455  S
O455        C464   1.282       .  A
O456       Zr461   2.416       .  S
Zr457       O651   2.475       .  S
Zr457       O661   2.342       .  S
Zr457       O673   2.338       .  S
Zr457       O475   2.330       .  S
Zr458      O1272   2.325       .  S
Zr458       O860   2.336       .  S
Zr458       O683   2.331       .  S
Zr459       O637   2.400   1_554  S
Zr459       O642   2.333   1_554  S
Zr459       O648   2.343   1_554  S
Zr459      O1313   2.344   1_455  S
Zr460      O1285   2.477       .  S
Zr460      O1290   2.395       .  S
Zr460      O1302   2.342       .  S
Zr460       O475   2.339   1_655  S
Zr461      O1295   2.369       .  S
Zr461       O672   2.334   1_554  S
Zr461      O1303   2.339       .  S
Zr461      O1525   2.344   1_554  S
O462      Zr1300   2.342       .  S
O462       Zr671   2.331       .  S
O463       Zr667   2.334       .  S
O463      Zr1301   2.333   1_455  S
C464        C576   1.470       .  S
C465        O652   1.298   1_554  A
C465        C596   1.479       .  S
C466        C591   1.444       .  S
C467        C612   1.482       .  S
C468        C588   1.445       .  S
C469       O1496   1.296       .  A
C469        C599   1.485       .  S
C470       O1287   1.304       .  A
C470        C615   1.498       .  S
C471        O660   1.286   1_554  A
C471        C603   1.495       .  S
H472        O473   0.966       .  S
O473       Zr668   2.332   1_554  S
O473      Zr1299   2.345       .  S
H474        O685   0.964   1_554  S
O475      Zr1511   2.348   1_455  S
O475        H684   0.964       .  S
C476        C572   1.514       .  S
C476        C592   1.511       .  S
C476        C595   1.541       .  S
O477       Zr513   2.507       .  S
O477        C488   1.305       .  A
O478       Zr512   2.502       .  S
O478        C489   1.304       .  A
O479       Zr485   2.472       .  S
O479        C490   1.296       .  A
O480       Zr485   2.474       .  S
O480        C491   1.298       .  A
O481       Zr515   2.345       .  S
O481        C491   1.276       .  A
O482       Zr514   2.392       .  S
O482        C490   1.285       .  A
O483       Zr485   2.412       .  S
O483        C489   1.289       .  A
O484       Zr485   2.394       .  S
O484        C488   1.285       .  A
Zr485       O486   2.318       .  S
Zr485       O487   2.334       .  S
Zr485       O495   2.352       .  S
Zr485       O493   2.353       .  S
O486       Zr512   2.336       .  S
O486       Zr515   2.331       .  S
O487       Zr513   2.341       .  S
O487       Zr514   2.326       .  S
C488        C628   1.493       .  S
C489        C539   1.498       .  S
C490        C563   1.484       .  S
C491        C571   1.446       .  S
H492        O493   0.966       .  S
O493       Zr512   2.351       .  S
O493       Zr514   2.332       .  S
H494        O495   0.966       .  S
O495       Zr513   2.333       .  S
O495       Zr515   2.345       .  S
O496       Zr512   2.515       .  S
O496        C519   1.307       .  A
O497       Zr513   2.504       .  S
O497        C520   1.304       .  A
O498       Zr514   2.490       .  S
O498        C521   1.300       .  A
O499       Zr515   2.478       .  S
O499        C522   1.299       .  A
O500       Zr515   2.485       .  S
O500        C523   1.299       .  A
O501       Zr514   2.478       .  S
O501        C524   1.298       .  A
O502       Zr516   2.469       .  S
O502        C525   1.298       .  A
O503       Zr516   2.466       .  S
O503        C526   1.295       .  A
O504       Zr514   2.335       .  S
O504        C525   1.274       .  A
O505       Zr515   2.397       .  S
O505        C526   1.287       .  A
O506       Zr512   2.415       .  S
O506        C521   1.289       .  A
O507       Zr513   2.372       .  S
O507        C524   1.282       .  A
O508       Zr513   2.416       .  S
O508        C523   1.288       .  A
O509       Zr512   2.369       .  S
O509        C522   1.282       .  A
O510       Zr516   2.394       .  S
O510        C519   1.285       .  A
O511       Zr516   2.412       .  S
O511        C520   1.289       .  A
Zr512       O518   2.331       .  S
Zr512       O530   2.343       .  S
Zr513       O517   2.347       .  S
Zr513       O528   2.338       .  S
Zr514       O518   2.341       .  S
Zr514       O528   2.337       .  S
Zr515       O517   2.327       .  S
Zr515       O530   2.327       .  S
Zr516       O517   2.346       .  S
Zr516       O518   2.345       .  S
Zr516       O530   2.336       .  S
Zr516       O528   2.317       .  S
C519        C560   1.494       .  S
C520        C543   1.497       .  S
C521        C567   1.496       .  S
C522        C547   1.472       .  S
C523        C556   1.483       .  S
C524        C535   1.469       .  S
C525        C552   1.444       .  S
C526        C624   1.480       .  S
H527        O528   0.964       .  S
H529        O530   0.964       .  S
C531        C536   1.519       .  S
C531        C750   1.541       .  S
C531        C608   1.542       .  S
C531        C611   1.524       .  S
C532       C1399   1.540   1_455  S
C532        C564   1.524       .  S
C532        C575   1.518       .  S
C532        C580   1.540       .  S
C533        C544   1.539       .  S
C533        C758   1.518       .  S
C533        C600   1.525       .  S
C533        C814   1.539       .  S
C534        C551   1.513       .  S
C534        C583   1.535   1_565  S
C534        C587   1.516       .  S
C535        C536   1.360       .  D
C535        H537   1.080       .  S
C536        H538   1.088       .  S
C539        C540   1.362       .  D
C539        H541   1.086       .  S
C540        C741   1.540   1_554  S
C540        H542   1.089       .  S
C543        C544   1.362       .  D
C543        H545   1.086       .  S
C544        H546   1.089       .  S
C547        C548   1.360       .  D
C547        H549   1.081       .  S
C548        C743   1.521   1_554  S
C548        H550   1.088       .  S
C551        C552   1.357       .  D
C551        H553   1.089       .  S
C552        H554   1.084       .  S
C555        C556   1.355       .  D
C555        H557   1.089       .  S
C556        H558   1.083       .  S
C559       C1372   1.540       .  S
C559        C560   1.370       .  D
C559        H561   1.088       .  S
C560        H562   1.084       .  S
C563        C564   1.356       .  D
C563        H565   1.086       .  S
C564        H566   1.088       .  S
C567        C568   1.359       .  D
C567        H569   1.085       .  S
C568        H570   1.088       .  S
C571        C572   1.355       .  D
C571        H573   1.086       .  S
C572        H574   1.088       .  S
C575        C576   1.359       .  D
C575        H577   1.088   1_455  S
C576        H578   1.081       .  S
C579        C580   1.362       .  D
C579        H581   1.086       .  S
C580        H582   1.089   1_455  S
C583        C584   1.358   1_545  D
C583        H585   1.088       .  S
C587        C588   1.355       .  D
C587        H589   1.088   1_565  S
C588        H590   1.086       .  S
C591        C592   1.356       .  D
C591        H593   1.085       .  S
C592        H594   1.089       .  S
C595        C596   1.354       .  D
C595        H597   1.089       .  S
C599        C600   1.355       .  D
C599        H811   1.086       .  S
C600        H602   1.088       .  S
H601        C809   1.086   1_554  S
C603        C604   1.370   1_554  D
C603        H605   1.084       .  S
C604        C743   1.540       .  S
C604        H816   1.088       .  S
H606        C814   1.088       .  S
C607        C608   1.370       .  D
C607        H609   1.084       .  S
C608        H610   1.088       .  S
C611        C612   1.353       .  D
C611        H613   1.088       .  S
C612        H614   1.086       .  S
C615        C616   1.363   1_655  D
C615        H617   1.086       .  S
C616       C1261   1.539       .  S
C616       H1458   1.089       .  S
H618       C1456   1.089       .  S
C619       C1261   1.519       .  S
C619       C1460   1.361   1_455  D
C619        H621   1.088       .  S
C620       C1459   1.360       .  D
C620        H622   1.080       .  S
C623        C624   1.353       .  D
C623        H625   1.088       .  S
C624        H626   1.086       .  S
C627       C1261   1.539       .  S
C627        C628   1.368       .  D
C627        H629   1.088       .  S
C628        H630   1.084       .  S
C631       C1666   1.541       .  S
C631       C1669   1.521       .  S
C631        C833   1.522       .  S
C631       C1677   1.540       .  S
O632       Zr668   2.487       .  S
O632        C643   1.300       .  A
O633       Zr667   2.490   1_556  S
O633        C644   1.300       .  A
O634       Zr640   2.510       .  S
O634        C645   1.306       .  A
O635        C646   1.304       .  A
O636       Zr670   2.416   1_455  S
O636        C646   1.290       .  A
O637        C645   1.286       .  A
O638        C644   1.289   1_545  A
O639       Zr640   2.372       .  S
O639       C1483   1.282   1_455  A
Zr640       O642   2.341       .  S
Zr640       O648   2.332       .  S
O641       Zr667   2.329   1_556  S
O641       Zr670   2.349   1_455  S
O642      Zr1508   2.324   1_455  S
C643       O1479   1.282       .  A
C643        C830   1.471       .  S
C644        C794   1.494       .  S
C645        C817   1.496       .  S
C646        C789   1.499       .  S
H647        O648   0.965       .  S
H649       O1490   0.964       .  S
O650      Zr1088   2.340       .  S
O650       Zr670   2.318   1_545  S
O650       H1489   0.964       .  S
O651        C674   1.298       .  A
O652       Zr668   2.479       .  S
O653       Zr669   2.465       .  S
O653        C676   1.297       .  A
O654       Zr670   2.463   1_455  S
O654        C677   1.294       .  A
O655      Zr1510   2.478       .  S
O655        C678   1.299       .  A
O656       Zr669   2.465       .  S
O656       C1309   1.295   1_455  A
O657       C1520   1.305       .  A
O658       Zr671   2.516       .  S
O658        C681   1.307       .  A
O659       Zr669   2.407       .  S
O659        C680   1.287   1_455  A
O660      Zr1510   2.398       .  S
O662       Zr668   2.395       .  S
O662        C679   1.286       .  A
O663        C678   1.275   1_545  A
O664       Zr667   2.409   1_556  S
O664        C677   1.289       .  A
O665      Zr1511   2.372   1_455  S
O665        C674   1.282       .  A
O666       Zr671   2.421       .  S
Zr667       O685   2.326   1_554  S
Zr668      O1482   2.323       .  S
Zr668      O1070   2.340       .  S
Zr669      O1523   2.349   1_455  S
Zr670      O1495   2.476       .  S
Zr670      O1500   2.395       .  S
Zr670      O1512   2.336       .  S
Zr670       O685   2.337   1_655  S
Zr671      O1505   2.372       .  S
Zr671      O1513   2.338       .  S
Zr671      O1315   2.348       .  S
O672      Zr1510   2.349       .  S
O673      Zr1511   2.338   1_455  S
C674        C786   1.470       .  S
C675        C806   1.479       .  S
C676        C801   1.444       .  S
C677        C822   1.482       .  S
C678        C798   1.445       .  S
C679       O1286   1.296   1_556  A
C679        C809   1.485       .  S
C680       O1497   1.305       .  A
C680        C825   1.501       .  S
C681        C813   1.494       .  S
H682        O683   0.966       .  S
O683      Zr1509   2.346       .  S
O685      Zr1301   2.346   1_456  S
C686        C782   1.515       .  S
C686        C802   1.511       .  S
C686        C805   1.540       .  S
O687       Zr723   2.510       .  S
O687        C698   1.306       .  A
O688       Zr722   2.507       .  S
O688        C699   1.305       .  A
O689       Zr695   2.472       .  S
O689        C700   1.296       .  A
O690       Zr695   2.473       .  S
O690        C701   1.298       .  A
O691       Zr725   2.347       .  S
O691        C701   1.276       .  A
O692       Zr724   2.392       .  S
O692        C700   1.285       .  A
O693       Zr695   2.409       .  S
O693        C699   1.288       .  A
O694       Zr695   2.393       .  S
O694        C698   1.285       .  A
Zr695       O696   2.319       .  S
Zr695       O697   2.334       .  S
Zr695       O705   2.348       .  S
Zr695       O703   2.349       .  S
O696       Zr722   2.335       .  S
O696       Zr725   2.332       .  S
O697       Zr723   2.340       .  S
O697       Zr724   2.323       .  S
C698        C838   1.495       .  S
C699        C749   1.499       .  S
C700        C773   1.484       .  S
C701        C781   1.447       .  S
H702        O703   0.966       .  S
O703       Zr722   2.351       .  S
O703       Zr724   2.334       .  S
H704        O705   0.966       .  S
O705       Zr723   2.331       .  S
O705       Zr725   2.342       .  S
O706       Zr722   2.518       .  S
O706        C729   1.307       .  A
O707       Zr723   2.502       .  S
O707        C730   1.304       .  A
O708       Zr724   2.477       .  S
O708        C731   1.297       .  A
O709       Zr725   2.468       .  S
O709        C732   1.296       .  A
O710       Zr725   2.482       .  S
O710        C733   1.298       .  A
O711       Zr724   2.481       .  S
O711        C734   1.299       .  A
O712       Zr726   2.473       .  S
O712        C735   1.298       .  A
O713       Zr726   2.467       .  S
O713        C736   1.295       .  A
O714       Zr724   2.337       .  S
O714        C735   1.274       .  A
O715       Zr725   2.399       .  S
O715        C736   1.287       .  A
O716       Zr722   2.417       .  S
O716        C731   1.290       .  A
O717       Zr723   2.369       .  S
O717        C734   1.282       .  A
O718       Zr723   2.409       .  S
O718        C733   1.289       .  A
O719       Zr722   2.374       .  S
O719        C732   1.283       .  A
O720       Zr726   2.394       .  S
O720        C729   1.285       .  A
O721       Zr726   2.418       .  S
O721        C730   1.290       .  A
Zr722       O728   2.334       .  S
Zr722       O740   2.345       .  S
Zr723       O727   2.347       .  S
Zr723       O738   2.336       .  S
Zr724       O728   2.344       .  S
Zr724       O738   2.334       .  S
Zr725       O727   2.329       .  S
Zr725       O740   2.329       .  S
Zr726       O727   2.348       .  S
Zr726       O728   2.346       .  S
Zr726       O740   2.339       .  S
Zr726       O738   2.317       .  S
C729        C770   1.495       .  S
C730        C753   1.498       .  S
C731        C777   1.491       .  S
C732        C757   1.469       .  S
C733        C766   1.491       .  S
C734        C745   1.470       .  S
C735        C762   1.446       .  S
C736        C834   1.481       .  S
H737        O738   0.964       .  S
H739        O740   0.964       .  S
C741        C746   1.520       .  S
C741        C818   1.542       .  S
C741        C821   1.524       .  S
C742       C1609   1.540   1_455  S
C742        C774   1.525       .  S
C742        C785   1.519       .  S
C742        C790   1.541       .  S
C743        C754   1.540       .  S
C743        C810   1.525       .  S
C744        C761   1.516       .  S
C744        C793   1.534   1_565  S
C744        C797   1.516       .  S
C745        C746   1.361       .  D
C745        H747   1.080       .  S
C746        H748   1.088       .  S
C749        C750   1.364       .  D
C749        H751   1.086       .  S
C750        H752   1.088       .  S
C753        C754   1.361       .  D
C753        H755   1.086       .  S
C754        H756   1.089       .  S
C757        C758   1.358       .  D
C757        H759   1.081       .  S
C758        H760   1.088       .  S
C761        C762   1.358       .  D
C761        H763   1.088       .  S
C762        H764   1.084       .  S
C765        C766   1.355       .  D
C765        H767   1.089       .  S
C766        H768   1.086       .  S
C769       C1582   1.539       .  S
C769        C770   1.370       .  D
C769        H771   1.088       .  S
C770        H772   1.084       .  S
C773        C774   1.356       .  D
C773        H775   1.086       .  S
C774        H776   1.088       .  S
C777        C778   1.353       .  D
C777        H779   1.085       .  S
C778        H780   1.089       .  S
C781        C782   1.355       .  D
C781        H783   1.086       .  S
C782        H784   1.088       .  S
C785        C786   1.359       .  D
C785        H787   1.088   1_455  S
C786        H788   1.081       .  S
C789        C790   1.362       .  D
C789        H791   1.086       .  S
C790        H792   1.088   1_455  S
C793        C794   1.358   1_545  D
C793        H795   1.088       .  S
C797        C798   1.354       .  D
C797        H799   1.088   1_565  S
C798        H800   1.086       .  S
C801        C802   1.356       .  D
C801        H803   1.085       .  S
C802        H804   1.089       .  S
C805        C806   1.354       .  D
C805        H807   1.089       .  S
C809        C810   1.355       .  D
C810        H812   1.088       .  S
C813        C814   1.370       .  D
C813        H815   1.084       .  S
C817        C818   1.369       .  D
C817        H819   1.084       .  S
C818        H820   1.088       .  S
C821        C822   1.352       .  D
C821        H823   1.088   1_556  S
C822        H824   1.086       .  S
C825        C826   1.364   1_655  D
C825        H827   1.086       .  S
C826       C1471   1.542       .  S
C826       H1668   1.089       .  S
H828       C1666   1.089       .  S
C829       C1471   1.521       .  S
C829       C1670   1.361   1_455  D
C829        H831   1.088       .  S
C830       C1669   1.362       .  D
C830        H832   1.080       .  S
C833        C834   1.353       .  D
C833        H835   1.088       .  S
C834        H836   1.086       .  S
C837       C1471   1.541       .  S
C837        C838   1.369       .  D
C837        H839   1.088       .  S
C838        H840   1.084       .  S
C841       C1043   1.523   1_455  S
O842       Zr878   2.478       .  S
O842        C853   1.298       .  A
O843       Zr877   2.492       .  S
O843        C854   1.301       .  A
O844       Zr850   2.518       .  S
O844        C855   1.307       .  A
O845      Zr1270   2.502       .  S
O845        C856   1.304       .  A
O846       Zr880   2.413       .  S
O846        C856   1.289       .  A
O847      Zr1089   2.390       .  S
O847        C855   1.284       .  A
O848      Zr1270   2.411       .  S
O848        C854   1.289       .  A
O849       Zr850   2.366       .  S
Zr850      O1265   2.506   1_545  S
Zr850      O1268   2.416       .  S
Zr850      O1271   2.351   1_545  S
Zr850       O852   2.342       .  S
Zr850      O1280   2.340       .  S
Zr850       O858   2.326       .  S
O851      Zr1270   2.349       .  S
O851       Zr877   2.332       .  S
O851       Zr880   2.352       .  S
O852      Zr1089   2.336       .  S
C853       C1040   1.468       .  S
C854       C1004   1.494       .  S
C855       C1027   1.496       .  S
C856        C999   1.497       .  S
H857        O858   0.965       .  S
O858      Zr1297   2.342   1_545  S
O858      Zr1089   2.344       .  S
O860      Zr1270   2.339       .  S
O860       Zr880   2.316       .  S
O861      Zr1087   2.474       .  S
O861        C884   1.298       .  A
O862       Zr878   2.481       .  S
O862       C1095   1.298       .  A
O863       Zr879   2.474       .  S
O863        C886   1.299       .  A
O864       Zr880   2.463       .  S
O864        C887   1.294       .  A
O865        C888   1.299       .  A
O866       Zr879   2.473       .  S
O867      Zr1301   2.509   1_545  S
O868       Zr881   2.521       .  S
O868        C891   1.308       .  A
O869       Zr879   2.407       .  S
O869        C890   1.288       .  A
O870       C1101   1.285       .  A
O871      Zr1087   2.338       .  S
O871       C1306   1.275       .  A
O872       Zr878   2.408       .  S
O872        C889   1.289       .  A
O873      Zr1298   2.337       .  S
O873        C888   1.274       .  A
O874       Zr877   2.408       .  S
O874        C887   1.289       .  A
O875        C884   1.282       .  A
O876       Zr881   2.413       .  S
O876       C1305   1.288       .  A
Zr877      O1071   2.478       .  S
Zr877      O1081   2.347       .  S
Zr877      O1278   2.344       .  S
Zr877      O1093   2.333       .  S
Zr877       O895   2.331       .  S
Zr878      O1293   2.338       .  S
Zr878      O1302   2.342   1_545  S
Zr878      O1103   2.337       .  S
Zr879      O1057   2.389   1_554  S
Zr879      O1062   2.334   1_554  S
Zr879      O1068   2.339   1_554  S
Zr879      O1303   2.321   1_545  S
Zr880       O895   2.337       .  S
Zr881      O1287   2.505       .  S
Zr881      O1092   2.334   1_554  S
Zr881      O1313   2.352       .  S
O882      Zr1298   2.344       .  S
O882      Zr1091   2.332       .  S
O883      Zr1087   2.332       .  S
O883      Zr1299   2.319       .  S
C884        C996   1.470       .  S
C885       O1072   1.297   1_554  A
C885       O1296   1.291   1_545  A
C885       C1016   1.492       .  S
C886       O1291   1.274   1_545  A
C886       C1011   1.440       .  S
C887       C1032   1.482       .  S
C888       C1008   1.443       .  S
C889       C1019   1.486       .  S
C890       C1035   1.498       .  S
C891       O1080   1.285   1_554  A
C891       C1023   1.497       .  S
H892        O893   0.967       .  S
O893      Zr1088   2.337   1_554  S
O893      Zr1301   2.353   1_545  S
H894       O1105   0.964       .  S
O895       H1104   0.964       .  S
C896       C1408   1.528   1_545  S
C896        C992   1.507       .  S
C896       C1012   1.523       .  S
C896       C1015   1.528       .  S
O897       Zr933   2.512       .  S
O897        C908   1.306       .  A
O898       Zr932   2.508       .  S
O898        C909   1.305       .  A
O899       Zr905   2.469       .  S
O899        C910   1.295       .  A
O900       Zr905   2.468       .  S
O900        C911   1.297       .  A
O901       Zr935   2.333       .  S
O901        C911   1.273       .  A
O902       Zr934   2.394       .  S
O902        C910   1.286       .  A
O903       Zr905   2.409       .  S
O903        C909   1.288       .  A
O904       Zr905   2.388       .  S
O904        C908   1.284       .  A
Zr905       O906   2.318       .  S
Zr905       O907   2.332       .  S
Zr905       O915   2.349       .  S
Zr905       O913   2.350       .  S
O906       Zr932   2.334       .  S
O906       Zr935   2.331       .  S
O907       Zr933   2.342       .  S
O907       Zr934   2.327       .  S
C908       C1048   1.494       .  S
C909        C959   1.499       .  S
C910        C983   1.483       .  S
C911        C991   1.434       .  S
H912        O913   0.966       .  S
O913       Zr932   2.350       .  S
O913       Zr934   2.331       .  S
H914        O915   0.966       .  S
O915       Zr933   2.325       .  S
O915       Zr935   2.344       .  S
O916       Zr932   2.517       .  S
O916        C939   1.307       .  A
O917       Zr933   2.498       .  S
O917        C940   1.303       .  A
O918       Zr934   2.490       .  S
O918        C941   1.300       .  A
O919       Zr935   2.472       .  S
O919        C942   1.297       .  A
O920       Zr935   2.473       .  S
O920        C943   1.297       .  A
O921       Zr934   2.478       .  S
O921        C944   1.298       .  A
O922       Zr936   2.469       .  S
O922        C945   1.298       .  A
O923       Zr936   2.473       .  S
O923        C946   1.296       .  A
O924       Zr934   2.334       .  S
O924        C945   1.274       .  A
O925       Zr935   2.394       .  S
O925        C946   1.286       .  A
O926       Zr932   2.410       .  S
O926        C941   1.288       .  A
O927       Zr933   2.370       .  S
O927        C944   1.282       .  A
O928       Zr933   2.420       .  S
O928        C943   1.289       .  A
O929       Zr932   2.370       .  S
O929        C942   1.282       .  A
O930       Zr936   2.394       .  S
O930        C939   1.285       .  A
O931       Zr936   2.414       .  S
O931        C940   1.289       .  A
Zr932       O938   2.332       .  S
Zr932       O950   2.342       .  S
Zr933       O937   2.350       .  S
Zr933       O948   2.339       .  S
Zr934       O938   2.341       .  S
Zr934       O948   2.336       .  S
Zr935       O937   2.325       .  S
Zr935       O950   2.321       .  S
Zr936       O937   2.345       .  S
Zr936       O938   2.347       .  S
Zr936       O950   2.336       .  S
Zr936       O948   2.319       .  S
C939        C980   1.494       .  S
C940        C963   1.494       .  S
C941        C987   1.494       .  S
C942        C967   1.470       .  S
C943        C976   1.478       .  S
C944        C955   1.468       .  S
C945        C972   1.443       .  S
C946       C1044   1.482       .  S
H947        O948   0.964       .  S
H949        O950   0.964       .  S
C951        C956   1.518       .  S
C951       C1170   1.540       .  S
C951       C1028   1.543       .  S
C951       C1031   1.524       .  S
C952        C984   1.524       .  S
C952        C995   1.519       .  S
C952       C1000   1.539       .  S
C953        C964   1.537       .  S
C953       C1178   1.518       .  S
C953       C1020   1.528       .  S
C953       C1234   1.543       .  S
C954        C971   1.513       .  S
C954       C1395   1.542       .  S
C954       C1003   1.534       .  S
C954       C1007   1.514       .  S
C955        C956   1.360       .  D
C955        H957   1.080       .  S
C956        H958   1.088       .  S
C959        C960   1.364       .  D
C959        H961   1.086       .  S
C960       C1161   1.541   1_554  S
C960        H962   1.088       .  S
C963        C964   1.361       .  D
C963        H965   1.086       .  S
C964        H966   1.089       .  S
C967        C968   1.359       .  D
C967        H969   1.081       .  S
C968       C1163   1.519   1_554  S
C968        H970   1.088       .  S
C971        C972   1.357       .  D
C971        H973   1.089       .  S
C972        H974   1.084       .  S
C975       C1374   1.540   1_545  S
C975        C976   1.353       .  D
C975        H977   1.089       .  S
C976        H978   1.083       .  S
C979        C980   1.370       .  D
C979        H981   1.088       .  S
C980        H982   1.084       .  S
C983        C984   1.354       .  D
C983        H985   1.086       .  S
C984        H986   1.088       .  S
C987        C988   1.359       .  D
C987        H989   1.085       .  S
C988       C1316   1.536       .  S
C988        H990   1.088       .  S
C991        C992   1.355       .  D
C991        H993   1.087       .  S
C992        H994   1.088       .  S
C995        C996   1.359       .  D
C995        H997   1.088       .  S
C996        H998   1.081       .  S
C999       C1000   1.362       .  D
C999       H1001   1.086       .  S
C1000      H1002   1.089       .  S
C1003      C1004   1.359       .  D
C1003      H1005   1.088       .  S
C1004      H1426   1.086       .  S
H1006      C1424   1.086       .  S
C1007      C1008   1.354       .  D
C1007      H1009   1.089       .  S
C1008      H1010   1.086       .  S
C1011      C1012   1.361       .  D
C1011      H1013   1.084       .  S
C1012      H1014   1.087   1_545  S
C1015      C1016   1.348       .  D
C1015      H1017   1.091       .  S
C1016      H1438   1.085       .  S
H1018      C1436   1.083       .  S
C1019      C1020   1.353       .  D
C1019      H1231   1.086       .  S
C1020      H1022   1.088       .  S
H1021      C1229   1.086   1_554  S
C1023      C1024   1.371   1_554  D
C1023      H1025   1.084       .  S
C1024      C1163   1.543       .  S
C1024      H1236   1.088       .  S
H1026      C1234   1.088       .  S
C1027      C1028   1.371       .  D
C1027      H1029   1.084       .  S
C1028      H1030   1.088       .  S
C1031      C1032   1.351       .  D
C1031      H1033   1.088       .  S
C1032      H1034   1.086       .  S
C1035      C1036   1.363       .  D
C1035      H1037   1.086       .  S
C1039      H1041   1.088       .  S
C1040      H1042   1.080       .  S
C1043      C1044   1.355       .  D
C1043      H1045   1.088       .  S
C1044      H1046   1.086       .  S
C1047      C1048   1.369       .  D
C1047      H1049   1.088       .  S
C1048      H1050   1.084       .  S
C1051      C1253   1.523   1_455  S
O1052     Zr1088   2.480       .  S
O1052      C1063   1.299       .  A
O1053     Zr1087   2.494   1_556  S
O1053      C1064   1.301       .  A
O1054     Zr1060   2.518       .  S
O1054      C1065   1.308       .  A
O1055     Zr1480   2.504       .  S
O1055      C1066   1.304       .  A
O1056     Zr1090   2.416       .  S
O1056      C1066   1.289       .  A
O1057      C1065   1.284       .  A
O1058     Zr1480   2.412       .  S
O1058      C1064   1.289       .  A
O1059     Zr1060   2.377       .  S
Zr1060     O1475   2.505   1_545  S
Zr1060     O1478   2.424       .  S
Zr1060     O1481   2.351   1_545  S
Zr1060     O1062   2.343       .  S
Zr1060     O1490   2.340       .  S
Zr1060     O1068   2.327       .  S
O1061     Zr1480   2.347       .  S
O1061     Zr1087   2.329   1_556  S
O1061     Zr1090   2.349       .  S
C1063      C1250   1.469       .  S
C1064      C1214   1.495       .  S
C1065      C1237   1.496       .  S
C1066      C1209   1.498       .  S
H1067      O1068   0.965       .  S
O1068     Zr1507   2.342   1_545  S
O1070     Zr1480   2.341       .  S
O1070     Zr1090   2.318       .  S
O1071      C1094   1.298       .  A
O1072     Zr1088   2.478       .  S
O1073     Zr1089   2.478       .  S
O1073      C1096   1.300       .  A
O1074     Zr1090   2.467       .  S
O1074      C1097   1.295       .  A
O1075      C1098   1.299       .  A
O1076     Zr1089   2.465       .  S
O1077     Zr1511   2.513   1_545  S
O1078     Zr1091   2.520       .  S
O1078      C1101   1.308       .  A
O1079     Zr1089   2.410       .  S
O1079      C1100   1.288       .  A
O1081      C1516   1.276       .  A
O1082     Zr1088   2.405       .  S
O1082      C1099   1.288       .  A
O1083     Zr1508   2.344       .  S
O1083      C1098   1.275       .  A
O1084     Zr1087   2.404   1_556  S
O1084      C1097   1.288       .  A
O1085      C1094   1.281       .  A
O1086     Zr1091   2.407       .  S
O1086      C1515   1.288       .  A
Zr1087     O1488   2.344   1_554  S
Zr1087     O1105   2.329       .  S
Zr1088     O1503   2.331       .  S
Zr1088     O1512   2.339   1_545  S
Zr1089     O1513   2.316   1_545  S
Zr1090     O1105   2.335   1_556  S
Zr1091     O1497   2.511       .  S
Zr1091     O1523   2.351       .  S
O1092     Zr1508   2.347       .  S
O1093     Zr1509   2.321       .  S
C1094      C1206   1.471       .  S
C1095      O1506   1.291   1_545  A
C1095      C1226   1.495       .  S
C1096      O1501   1.274   1_545  A
C1096      C1221   1.442       .  S
C1097      C1242   1.483       .  S
C1098      C1218   1.447       .  S
C1099      C1229   1.484       .  S
C1100      C1245   1.503       .  S
C1101      C1233   1.496       .  S
H1102      O1103   0.967       .  S
O1103     Zr1511   2.348   1_545  S
C1106      C1618   1.529   1_545  S
C1106      C1202   1.506       .  S
C1106      C1222   1.523       .  S
C1106      C1225   1.530       .  S
O1107     Zr1143   2.517       .  S
O1107      C1118   1.307       .  A
O1108     Zr1142   2.505       .  S
O1108      C1119   1.304       .  A
O1109     Zr1115   2.472       .  S
O1109      C1120   1.296       .  A
O1110     Zr1115   2.469       .  S
O1110      C1121   1.297       .  A
O1111     Zr1145   2.330       .  S
O1111      C1121   1.272       .  A
O1112     Zr1144   2.393       .  S
O1112      C1120   1.285       .  A
O1113     Zr1115   2.409       .  S
O1113      C1119   1.288       .  A
O1114     Zr1115   2.387       .  S
O1114      C1118   1.284       .  A
Zr1115     O1116   2.320       .  S
Zr1115     O1117   2.333       .  S
Zr1115     O1125   2.346       .  S
Zr1115     O1123   2.345       .  S
O1116     Zr1142   2.335       .  S
O1116     Zr1145   2.330       .  S
O1117     Zr1143   2.341       .  S
O1117     Zr1144   2.324       .  S
C1118      C1258   1.495       .  S
C1119      C1169   1.498       .  S
C1120      C1193   1.484       .  S
C1121      C1201   1.433       .  S
H1122      O1123   0.966       .  S
O1123     Zr1142   2.350       .  S
O1123     Zr1144   2.331       .  S
H1124      O1125   0.965       .  S
O1125     Zr1143   2.326       .  S
O1125     Zr1145   2.343       .  S
O1126     Zr1142   2.516       .  S
O1126      C1149   1.307       .  A
O1127     Zr1143   2.499       .  S
O1127      C1150   1.303       .  A
O1128     Zr1144   2.480       .  S
O1128      C1151   1.298       .  A
O1129     Zr1145   2.469       .  S
O1129      C1152   1.296       .  A
O1130     Zr1145   2.472       .  S
O1130      C1153   1.296       .  A
O1131     Zr1144   2.476       .  S
O1131      C1154   1.298       .  A
O1132     Zr1146   2.467       .  S
O1132      C1155   1.297       .  A
O1133     Zr1146   2.473       .  S
O1133      C1156   1.296       .  A
O1134     Zr1144   2.343       .  S
O1134      C1155   1.276       .  A
O1135     Zr1145   2.393       .  S
O1135      C1156   1.285       .  A
O1136     Zr1142   2.413       .  S
O1136      C1151   1.288       .  A
O1137     Zr1143   2.373       .  S
O1137      C1154   1.283       .  A
O1138     Zr1143   2.420       .  S
O1138      C1153   1.291       .  A
O1139     Zr1142   2.372       .  S
O1139      C1152   1.282       .  A
O1140     Zr1146   2.395       .  S
O1140      C1149   1.285       .  A
O1141     Zr1146   2.415       .  S
O1141      C1150   1.290       .  A
Zr1142     O1148   2.334       .  S
Zr1142     O1160   2.343       .  S
Zr1143     O1147   2.351       .  S
Zr1143     O1158   2.338       .  S
Zr1144     O1148   2.344       .  S
Zr1144     O1158   2.335       .  S
Zr1145     O1147   2.326       .  S
Zr1145     O1160   2.323       .  S
Zr1146     O1147   2.346       .  S
Zr1146     O1148   2.349       .  S
Zr1146     O1160   2.335       .  S
Zr1146     O1158   2.319       .  S
C1149      C1190   1.495       .  S
C1150      C1173   1.495       .  S
C1151      C1197   1.480       .  S
C1152      C1177   1.469       .  S
C1153      C1186   1.490       .  S
C1154      C1165   1.468       .  S
C1155      C1182   1.445       .  S
C1156      C1254   1.483       .  S
H1157      O1158   0.964       .  S
H1159      O1160   0.964       .  S
C1161      C1166   1.518       .  S
C1161      C1238   1.542       .  S
C1161      C1241   1.524       .  S
C1162      C1194   1.525       .  S
C1162      C1205   1.519       .  S
C1162      C1210   1.541       .  S
C1163      C1174   1.537       .  S
C1163      C1230   1.527       .  S
C1164      C1181   1.513       .  S
C1164      C1605   1.543       .  S
C1164      C1213   1.536       .  S
C1164      C1217   1.516       .  S
C1165      C1166   1.359       .  D
C1165      H1167   1.080       .  S
C1166      H1168   1.088       .  S
C1169      C1170   1.363       .  D
C1169      H1171   1.086       .  S
C1170      H1172   1.088       .  S
C1173      C1174   1.361       .  D
C1173      H1175   1.086       .  S
C1174      H1176   1.089       .  S
C1177      C1178   1.357       .  D
C1177      H1179   1.080       .  S
C1178      H1180   1.088       .  S
C1181      C1182   1.356       .  D
C1181      H1183   1.089       .  S
C1182      H1184   1.084       .  S
C1185      C1584   1.528   1_545  S
C1185      C1186   1.352       .  D
C1185      H1187   1.089       .  S
C1186      H1188   1.086       .  S
C1189      C1190   1.370       .  D
C1189      H1191   1.088       .  S
C1190      H1192   1.084       .  S
C1193      C1194   1.355       .  D
C1193      H1195   1.086       .  S
C1194      H1196   1.088       .  S
C1197      C1198   1.355       .  D
C1197      H1199   1.083       .  S
C1198      C1526   1.541       .  S
C1198      H1200   1.089       .  S
C1201      C1202   1.355       .  D
C1201      H1203   1.086       .  S
C1202      H1204   1.088       .  S
C1205      C1206   1.360       .  D
C1205      H1207   1.088       .  S
C1206      H1208   1.081       .  S
C1209      C1210   1.362       .  D
C1209      H1211   1.086       .  S
C1210      H1212   1.089       .  S
C1213      C1214   1.360       .  D
C1213      H1215   1.088       .  S
C1214      H1636   1.086       .  S
H1216      C1634   1.085       .  S
C1217      C1218   1.354       .  D
C1217      H1219   1.088       .  S
C1218      H1220   1.086       .  S
C1221      C1222   1.362       .  D
C1221      H1223   1.084       .  S
C1222      H1224   1.087   1_545  S
C1225      C1226   1.350       .  D
C1225      H1227   1.090       .  S
C1226      H1648   1.085       .  S
H1228      C1646   1.085       .  S
C1229      C1230   1.353       .  D
C1230      H1232   1.088       .  S
C1233      C1234   1.371       .  D
C1233      H1235   1.084       .  S
C1237      C1238   1.371       .  D
C1237      H1239   1.084       .  S
C1238      H1240   1.088       .  S
C1241      C1242   1.353       .  D
C1241      H1243   1.088   1_556  S
C1242      H1244   1.086       .  S
C1245      C1246   1.365       .  D
C1245      H1247   1.086       .  S
C1249      H1251   1.088       .  S
C1250      H1252   1.080       .  S
C1253      C1254   1.356       .  D
C1253      H1255   1.088       .  S
C1254      H1256   1.086       .  S
C1257      C1258   1.371       .  D
C1257      H1259   1.088       .  S
C1258      H1260   1.084       .  S
C1261      C1463   1.521   1_455  S
O1262     Zr1298   2.481       .  S
O1262      C1273   1.299       .  A
O1263     Zr1297   2.485       .  S
O1263      C1274   1.299       .  A
O1264     Zr1270   2.509       .  S
O1264      C1275   1.305       .  A
O1265      C1276   1.305       .  A
O1266     Zr1300   2.411       .  S
O1266      C1276   1.289       .  A
O1267     Zr1509   2.397       .  S
O1267      C1275   1.285       .  A
O1268      C1274   1.289   1_545  A
O1269     Zr1270   2.372       .  S
Zr1270     O1272   2.340       .  S
Zr1270     O1278   2.333       .  S
O1271     Zr1297   2.330       .  S
O1271     Zr1300   2.351       .  S
O1272     Zr1509   2.334       .  S
C1273      C1460   1.469       .  S
C1274      C1424   1.493       .  S
C1275      C1447   1.495       .  S
C1276      C1419   1.498       .  S
H1277      O1278   0.965       .  S
O1278     Zr1509   2.347       .  S
O1280     Zr1300   2.319   1_545  S
O1281     Zr1507   2.471   1_554  S
O1281      C1304   1.297       .  A
O1282     Zr1298   2.489       .  S
O1282      C1515   1.300       .  A
O1283     Zr1299   2.468       .  S
O1283      C1306   1.297       .  A
O1284     Zr1300   2.466       .  S
O1284      C1307   1.295       .  A
O1285      C1308   1.299       .  A
O1286     Zr1299   2.471       .  S
O1288     Zr1301   2.516       .  S
O1288      C1311   1.307       .  A
O1289     Zr1299   2.409       .  S
O1289      C1310   1.288       .  A
O1290      C1521   1.285       .  A
O1291     Zr1507   2.340   1_554  S
O1292     Zr1298   2.399       .  S
O1292      C1309   1.287       .  A
O1293      C1308   1.274   1_545  A
O1294     Zr1297   2.403       .  S
O1294      C1307   1.288       .  A
O1295      C1304   1.282       .  A
O1296     Zr1301   2.418       .  S
Zr1297     O1491   2.475       .  S
Zr1297     O1501   2.340       .  S
Zr1297     O1513   2.338       .  S
Zr1297     O1315   2.329       .  S
Zr1298     O1523   2.332       .  S
Zr1299     O1477   2.399   1_554  S
Zr1299     O1482   2.333   1_554  S
Zr1299     O1488   2.348   1_554  S
Zr1300     O1315   2.339       .  S
Zr1301     O1512   2.325   1_554  S
O1302     Zr1511   2.331       .  S
O1303     Zr1507   2.334   1_554  S
C1304      C1416   1.469       .  S
C1305      O1492   1.299   1_554  A
C1305      C1436   1.480       .  S
C1306      C1431   1.444       .  S
C1307      C1452   1.482       .  S
C1308      C1428   1.444       .  S
C1309      C1439   1.483       .  S
C1310      C1455   1.497       .  S
C1311      O1500   1.285   1_554  A
C1311      C1443   1.494       .  S
H1312      O1313   0.966       .  S
O1313     Zr1508   2.331   1_554  S
H1314      O1525   0.964   1_554  S
O1315      H1524   0.964       .  S
C1316      C1412   1.514       .  S
C1316      C1432   1.510       .  S
C1316      C1435   1.540       .  S
O1317     Zr1353   2.502       .  S
O1317      C1328   1.304       .  A
O1318     Zr1352   2.505       .  S
O1318      C1329   1.304       .  A
O1319     Zr1325   2.474       .  S
O1319      C1330   1.296       .  A
O1320     Zr1325   2.475       .  S
O1320      C1331   1.299       .  A
O1321     Zr1355   2.345       .  S
O1321      C1331   1.276       .  A
O1322     Zr1354   2.392       .  S
O1322      C1330   1.285       .  A
O1323     Zr1325   2.411       .  S
O1323      C1329   1.289       .  A
O1324     Zr1325   2.395       .  S
O1324      C1328   1.285       .  A
Zr1325     O1326   2.319       .  S
Zr1325     O1327   2.334       .  S
Zr1325     O1335   2.351       .  S
Zr1325     O1333   2.350       .  S
O1326     Zr1352   2.335       .  S
O1326     Zr1355   2.331       .  S
O1327     Zr1353   2.341       .  S
O1327     Zr1354   2.324       .  S
C1328      C1468   1.491       .  S
C1329      C1379   1.499       .  S
C1330      C1403   1.485       .  S
C1331      C1411   1.447       .  S
H1332      O1333   0.966       .  S
O1333     Zr1352   2.351       .  S
O1333     Zr1354   2.332       .  S
H1334      O1335   0.966       .  S
O1335     Zr1353   2.333       .  S
O1335     Zr1355   2.344       .  S
O1336     Zr1352   2.519       .  S
O1336      C1359   1.307       .  A
O1337     Zr1353   2.499       .  S
O1337      C1360   1.303       .  A
O1338     Zr1354   2.476       .  S
O1338      C1361   1.297       .  A
O1339     Zr1355   2.472       .  S
O1339      C1362   1.297       .  A
O1340     Zr1355   2.481       .  S
O1340      C1363   1.298       .  A
O1341     Zr1354   2.476       .  S
O1341      C1364   1.298       .  A
O1342     Zr1356   2.468       .  S
O1342      C1365   1.297       .  A
O1343     Zr1356   2.467       .  S
O1343      C1366   1.295       .  A
O1344     Zr1354   2.337       .  S
O1344      C1365   1.274       .  A
O1345     Zr1355   2.397       .  S
O1345      C1366   1.287       .  A
O1346     Zr1352   2.415       .  S
O1346      C1361   1.290       .  A
O1347     Zr1353   2.372       .  S
O1347      C1364   1.282       .  A
O1348     Zr1353   2.414       .  S
O1348      C1363   1.288       .  A
O1349     Zr1352   2.372       .  S
O1349      C1362   1.282       .  A
O1350     Zr1356   2.393       .  S
O1350      C1359   1.285       .  A
O1351     Zr1356   2.415       .  S
O1351      C1360   1.289       .  A
Zr1352     O1358   2.332       .  S
Zr1352     O1370   2.343       .  S
Zr1353     O1357   2.347       .  S
Zr1353     O1368   2.337       .  S
Zr1354     O1358   2.343       .  S
Zr1354     O1368   2.334       .  S
Zr1355     O1357   2.327       .  S
Zr1355     O1370   2.327       .  S
Zr1356     O1357   2.346       .  S
Zr1356     O1358   2.346       .  S
Zr1356     O1370   2.337       .  S
Zr1356     O1368   2.317       .  S
C1359      C1400   1.495       .  S
C1360      C1383   1.495       .  S
C1361      C1407   1.490       .  S
C1362      C1387   1.471       .  S
C1363      C1396   1.481       .  S
C1364      C1375   1.469       .  S
C1365      C1392   1.443       .  S
C1366      C1464   1.481       .  S
H1367      O1368   0.963       .  S
H1369      O1370   0.964       .  S
C1371      C1376   1.519       .  S
C1371      C1590   1.540       .  S
C1371      C1448   1.541       .  S
C1371      C1451   1.523       .  S
C1372      C1404   1.525       .  S
C1372      C1415   1.518       .  S
C1372      C1420   1.539       .  S
C1373      C1384   1.538       .  S
C1373      C1598   1.519       .  S
C1373      C1440   1.525       .  S
C1373      C1654   1.540       .  S
C1374      C1391   1.514       .  S
C1374      C1423   1.533   1_565  S
C1374      C1427   1.516       .  S
C1375      C1376   1.360       .  D
C1375      H1377   1.080       .  S
C1376      H1378   1.088       .  S
C1379      C1380   1.363       .  D
C1379      H1381   1.086       .  S
C1380      C1581   1.540   1_554  S
C1380      H1382   1.089       .  S
C1383      C1384   1.361       .  D
C1383      H1385   1.086       .  S
C1384      H1386   1.089       .  S
C1387      C1388   1.359       .  D
C1387      H1389   1.081       .  S
C1388      C1583   1.519   1_554  S
C1388      H1390   1.088       .  S
C1391      C1392   1.356       .  D
C1391      H1393   1.089       .  S
C1392      H1394   1.084       .  S
C1395      C1396   1.355       .  D
C1395      H1397   1.089       .  S
C1396      H1398   1.083       .  S
C1399      C1400   1.370       .  D
C1399      H1401   1.088       .  S
C1400      H1402   1.084       .  S
C1403      C1404   1.356       .  D
C1403      H1405   1.086       .  S
C1404      H1406   1.088       .  S
C1407      C1408   1.352       .  D
C1407      H1409   1.085       .  S
C1408      H1410   1.089       .  S
C1411      C1412   1.355       .  D
C1411      H1413   1.086       .  S
C1412      H1414   1.088       .  S
C1415      C1416   1.358       .  D
C1415      H1417   1.088       .  S
C1416      H1418   1.081       .  S
C1419      C1420   1.362       .  D
C1419      H1421   1.086       .  S
C1420      H1422   1.089       .  S
C1423      C1424   1.357   1_545  D
C1423      H1425   1.088       .  S
C1427      C1428   1.355       .  D
C1427      H1429   1.088   1_565  S
C1428      H1430   1.086       .  S
C1431      C1432   1.355       .  D
C1431      H1433   1.085       .  S
C1432      H1434   1.089       .  S
C1435      C1436   1.354       .  D
C1435      H1437   1.089       .  S
C1439      C1440   1.353       .  D
C1439      H1651   1.086       .  S
C1440      H1442   1.088       .  S
H1441      C1649   1.086   1_554  S
C1443      C1444   1.369   1_554  D
C1443      H1445   1.084       .  S
C1444      C1583   1.539       .  S
C1444      H1656   1.088       .  S
H1446      C1654   1.088       .  S
C1447      C1448   1.369       .  D
C1447      H1449   1.084       .  S
C1448      H1450   1.088       .  S
C1451      C1452   1.353       .  D
C1451      H1453   1.088       .  S
C1452      H1454   1.086       .  S
C1455      C1456   1.362       .  D
C1455      H1457   1.086       .  S
C1459      H1461   1.088       .  S
C1460      H1462   1.080       .  S
C1463      C1464   1.353       .  D
C1463      H1465   1.088       .  S
C1464      H1466   1.086       .  S
C1467      C1468   1.367       .  D
C1467      H1469   1.088       .  S
C1468      H1470   1.084       .  S
C1471      C1673   1.523   1_455  S
O1472     Zr1508   2.484       .  S
O1472      C1483   1.300       .  A
O1473     Zr1507   2.478       .  S
O1473      C1484   1.297       .  A
O1474     Zr1480   2.508       .  S
O1474      C1485   1.305       .  A
O1475      C1486   1.305       .  A
O1476     Zr1510   2.418       .  S
O1476      C1486   1.290       .  A
O1477      C1485   1.286       .  A
O1478      C1484   1.292   1_545  A
O1479     Zr1480   2.368       .  S
Zr1480     O1482   2.341       .  S
Zr1480     O1488   2.334       .  S
O1481     Zr1507   2.334       .  S
O1481     Zr1510   2.353       .  S
C1483      C1670   1.471       .  S
C1484      C1634   1.494       .  S
C1485      C1657   1.494       .  S
C1486      C1629   1.500       .  S
H1487      O1488   0.966       .  S
O1490     Zr1510   2.316   1_545  S
O1491      C1514   1.298       .  A
O1492     Zr1508   2.481       .  S
O1493     Zr1509   2.470       .  S
O1493      C1516   1.297       .  A
O1494     Zr1510   2.466       .  S
O1494      C1517   1.295       .  A
O1495      C1518   1.300       .  A
O1496     Zr1509   2.471       .  S
O1498     Zr1511   2.518       .  S
O1498      C1521   1.307       .  A
O1499     Zr1509   2.411       .  S
O1499      C1520   1.288       .  A
O1502     Zr1508   2.396       .  S
O1502      C1519   1.286       .  A
O1503      C1518   1.272   1_545  A
O1504     Zr1507   2.405       .  S
O1504      C1517   1.288       .  A
O1505      C1514   1.283       .  A
O1506     Zr1511   2.420       .  S
Zr1507     O1525   2.329       .  S
Zr1510     O1525   2.339       .  S
C1514      C1626   1.471       .  S
C1515      C1646   1.493       .  S
C1516      C1641   1.445       .  S
C1517      C1662   1.483       .  S
C1518      C1638   1.438       .  S
C1519      C1649   1.483       .  S
C1520      C1665   1.500       .  S
C1521      C1653   1.495       .  S
H1522      O1523   0.967       .  S
C1526      C1622   1.510       .  S
C1526      C1642   1.513       .  S
C1526      C1645   1.534       .  S
O1527     Zr1563   2.506       .  S
O1527      C1538   1.305       .  A
O1528     Zr1562   2.503       .  S
O1528      C1539   1.304       .  A
O1529     Zr1535   2.475       .  S
O1529      C1540   1.297       .  A
O1530     Zr1535   2.467       .  S
O1530      C1541   1.297       .  A
O1531     Zr1565   2.340       .  S
O1531      C1541   1.276       .  A
O1532     Zr1564   2.386       .  S
O1532      C1540   1.284       .  A
O1533     Zr1535   2.412       .  S
O1533      C1539   1.289       .  A
O1534     Zr1535   2.397       .  S
O1534      C1538   1.286       .  A
Zr1535     O1536   2.319       .  S
Zr1535     O1537   2.332       .  S
Zr1535     O1545   2.354       .  S
Zr1535     O1543   2.347       .  S
O1536     Zr1562   2.333       .  S
O1536     Zr1565   2.330       .  S
O1537     Zr1563   2.341       .  S
O1537     Zr1564   2.320       .  S
C1538      C1678   1.494       .  S
C1539      C1589   1.499       .  S
C1540      C1613   1.485       .  S
C1541      C1621   1.444       .  S
H1542      O1543   0.966       .  S
O1543     Zr1562   2.351       .  S
O1543     Zr1564   2.328       .  S
H1544      O1545   0.966       .  S
O1545     Zr1563   2.334       .  S
O1545     Zr1565   2.344       .  S
O1546     Zr1562   2.520       .  S
O1546      C1569   1.308       .  A
O1547     Zr1563   2.500       .  S
O1547      C1570   1.303       .  A
O1548     Zr1564   2.476       .  S
O1548      C1571   1.297       .  A
O1549     Zr1565   2.471       .  S
O1549      C1572   1.297       .  A
O1550     Zr1565   2.486       .  S
O1550      C1573   1.299       .  A
O1551     Zr1564   2.479       .  S
O1551      C1574   1.299       .  A
O1552     Zr1566   2.467       .  S
O1552      C1575   1.297       .  A
O1553     Zr1566   2.470       .  S
O1553      C1576   1.296       .  A
O1554     Zr1564   2.321       .  S
O1554      C1575   1.270       .  A
O1555     Zr1565   2.397       .  S
O1555      C1576   1.287       .  A
O1556     Zr1562   2.417       .  S
O1556      C1571   1.290       .  A
O1557     Zr1563   2.372       .  S
O1557      C1574   1.282       .  A
O1558     Zr1563   2.413       .  S
O1558      C1573   1.288       .  A
O1559     Zr1562   2.370       .  S
O1559      C1572   1.282       .  A
O1560     Zr1566   2.393       .  S
O1560      C1569   1.285       .  A
O1561     Zr1566   2.417       .  S
O1561      C1570   1.290       .  A
Zr1562     O1568   2.326       .  S
Zr1562     O1580   2.345       .  S
Zr1563     O1567   2.348       .  S
Zr1563     O1578   2.340       .  S
Zr1564     O1568   2.342       .  S
Zr1564     O1578   2.337       .  S
Zr1565     O1567   2.325       .  S
Zr1565     O1580   2.326       .  S
Zr1566     O1567   2.345       .  S
Zr1566     O1568   2.344       .  S
Zr1566     O1580   2.336       .  S
Zr1566     O1578   2.321       .  S
C1569      C1610   1.495       .  S
C1570      C1593   1.496       .  S
C1571      C1617   1.491       .  S
C1572      C1597   1.469       .  S
C1573      C1606   1.483       .  S
C1574      C1585   1.470       .  S
C1575      C1602   1.427       .  S
C1576      C1674   1.483       .  S
H1577      O1578   0.964       .  S
H1579      O1580   0.964       .  S
C1581      C1586   1.520       .  S
C1581      C1658   1.542       .  S
C1581      C1661   1.524       .  S
C1582      C1614   1.525       .  S
C1582      C1625   1.519       .  S
C1582      C1630   1.542       .  S
C1583      C1594   1.539       .  S
C1583      C1650   1.524       .  S
C1584      C1601   1.506       .  S
C1584      C1633   1.529       .  S
C1584      C1637   1.525       .  S
C1585      C1586   1.360       .  D
C1585      H1587   1.080       .  S
C1586      H1588   1.088       .  S
C1589      C1590   1.363       .  D
C1589      H1591   1.086       .  S
C1590      H1592   1.089       .  S
C1593      C1594   1.361       .  D
C1593      H1595   1.086       .  S
C1594      H1596   1.089       .  S
C1597      C1598   1.359       .  D
C1597      H1599   1.080       .  S
C1598      H1600   1.088       .  S
C1601      C1602   1.353       .  D
C1601      H1603   1.088       .  S
C1602      H1604   1.087       .  S
C1605      C1606   1.355       .  D
C1605      H1607   1.089       .  S
C1606      H1608   1.083       .  S
C1609      C1610   1.370       .  D
C1609      H1611   1.088       .  S
C1610      H1612   1.084       .  S
C1613      C1614   1.357       .  D
C1613      H1615   1.086       .  S
C1614      H1616   1.088       .  S
C1617      C1618   1.353       .  D
C1617      H1619   1.086       .  S
C1618      H1620   1.089       .  S
C1621      C1622   1.355       .  D
C1621      H1623   1.085       .  S
C1622      H1624   1.089       .  S
C1625      C1626   1.359       .  D
C1625      H1627   1.088       .  S
C1626      H1628   1.081       .  S
C1629      C1630   1.362       .  D
C1629      H1631   1.086       .  S
C1630      H1632   1.088       .  S
C1633      C1634   1.349       .  D
C1633      H1635   1.090       .  S
C1637      C1638   1.362       .  D
C1637      H1639   1.087   1_565  S
C1638      H1640   1.084       .  S
C1641      C1642   1.354       .  D
C1641      H1643   1.086       .  S
C1642      H1644   1.089       .  S
C1645      C1646   1.359       .  D
C1645      H1647   1.088       .  S
C1649      C1650   1.354       .  D
C1650      H1652   1.088       .  S
C1653      C1654   1.370       .  D
C1653      H1655   1.084       .  S
C1657      C1658   1.368       .  D
C1657      H1659   1.084       .  S
C1658      H1660   1.088       .  S
C1661      C1662   1.353       .  D
C1661      H1663   1.088   1_556  S
C1662      H1664   1.086       .  S
C1665      C1666   1.363       .  D
C1665      H1667   1.086       .  S
C1669      H1671   1.088       .  S
C1670      H1672   1.080       .  S
C1673      C1674   1.354       .  D
C1673      H1675   1.088       .  S
C1674      H1676   1.086       .  S
C1677      C1678   1.368       .  D
C1677      H1679   1.088       .  S
C1678      H1680   1.084       .  S
