geometry optimzed in LAMMPS
_audit_creation_date              2020-11-30 
_audit_creation_method            'lammps2cif' 
_symmetry_space_group_name_H-M    'P1' 
_symmetry_Int_Tables_number       1 
_symmetry_cell_setting            triclinic 
loop_ 
_symmetry_equiv_pos_as_xyz 
  x,y,z 
_cell_length_a                    56.8898302 
_cell_length_b                    57.001368552226566 
_cell_length_c                    56.835088689299255 
_cell_angle_alpha                 90.07118804953986 
_cell_angle_beta                  90.01885406782185 
_cell_angle_gamma                 90.10651679124777 
loop_ 
_atom_site_label 
_atom_site_type_symbol 
_atom_site_fract_x 
_atom_site_fract_y 
_atom_site_fract_z 
_atom_site_charge 
N1          N  0.49300915  0.02926967  0.49986189    -0.36300
N2          N  0.49585066  0.99241762  0.53514341    -0.56800
N3          N  0.49661351  0.95746015  0.49786353    -0.36200
N4          N  0.49591049  0.99421640  0.46262569    -0.56800
C5          C  0.49691577  0.04228920  0.51943514     0.27300
C6          C  0.49663052  0.04333583  0.48102558     0.27300
C7          C  0.50140834  0.94384773  0.51670034     0.27300
C8          C  0.50175190  0.94476608  0.47844607     0.27300
C9          C  0.49154099  0.01083203  0.54945897     0.36000
C10         C  0.49283414  0.97293087  0.54829153     0.36000
C11         C  0.49228366  0.01335297  0.44914931     0.36000
C12         C  0.49423314  0.97547191  0.44815861     0.36000
C13         C  0.50261203  0.06504584  0.51295013    -0.21500
C14         C  0.50233819  0.06573215  0.48875040    -0.21500
C15         C  0.50944318  0.92214065  0.50919304    -0.21500
C16         C  0.50958636  0.92268651  0.48504302    -0.21500
C17         C  0.48601775  0.00302099  0.57188155    -0.22600
C18         C  0.48681807  0.97897000  0.57113412    -0.22600
C19         C  0.48861182  0.00673611  0.42593974    -0.22600
C20         C  0.48981487  0.98272107  0.42532527    -0.22600
C21         C  0.49410015  0.03461857  0.54300166    -0.17900
C22         C  0.49415435  0.03678973  0.45706016    -0.17900
C23         C  0.49817713  0.95199938  0.45494039    -0.17900
C24         C  0.49711375  0.94984267  0.54041987    -0.17900
H25         H  0.50635062  0.07972538  0.52446611     0.15000
H26         H  0.50590340  0.08104125  0.47807767     0.15000
H27         H  0.51433412  0.90729531  0.51998514     0.15000
H28         H  0.51463848  0.90831544  0.47367171     0.15000
H29         H  0.48209287  0.01356086  0.58723496     0.13300
H30         H  0.48367514  0.96728015  0.58579961     0.13300
H31         H  0.48575199  0.01803692  0.41092493     0.13300
H32         H  0.48805339  0.97187650  0.40977569     0.13300
H33         H  0.48589943  0.01252257  0.49940444     0.26500
H34         H  0.48762398  0.97325965  0.49821550     0.26500
N35         N  0.03328586  0.49823435  0.49160019    -0.36300
N36         N  0.99593053  0.46381314  0.49281591    -0.56800
N37         N  0.96176636  0.50164046  0.49910900    -0.36200
N38         N  0.99910340  0.53612049  0.49537391    -0.56800
C39         C  0.04552240  0.47875698  0.48580445     0.27300
C40         C  0.04713062  0.51689724  0.48681680     0.27300
C41         C  0.94707885  0.48326005  0.49577843     0.27300
C42         C  0.94883394  0.52145084  0.49704400     0.27300
C43         C  0.01441688  0.44899006  0.49366412     0.36000
C44         C  0.97658133  0.45070162  0.49686788     0.36000
C45         C  0.01901586  0.54888305  0.49719088     0.36000
C46         C  0.98123438  0.55076631  0.50064655     0.36000
C47         C  0.06749657  0.48511055  0.47737189    -0.21500
C48         C  0.06850003  0.50920344  0.47797393    -0.21500
C49         C  0.92440748  0.49149716  0.49223126    -0.21500
C50         C  0.92553657  0.51555475  0.49293461    -0.21500
C51         C  0.00676078  0.42628731  0.49782454    -0.22600
C52         C  0.98276844  0.42734133  0.49971594    -0.22600
C53         C  0.01375838  0.57183600  0.50333533    -0.22600
C54         C  0.98977864  0.57304743  0.50542352    -0.22600
C55         C  0.03801978  0.45540293  0.48948666    -0.17900
C56         C  0.04178790  0.54052428  0.49207905    -0.17900
C57         C  0.95720372  0.54471724  0.49967932    -0.17900
C58         C  0.95326855  0.45922242  0.49687863    -0.17900
H59         H  0.08149687  0.47358791  0.47169695     0.15000
H60         H  0.08344705  0.51982467  0.47289772     0.15000
H61         H  0.90859525  0.48127809  0.48947335     0.15000
H62         H  0.91079552  0.52734354  0.49081472     0.15000
H63         H  0.01731602  0.41055572  0.49904925     0.13300
H64         H  0.97121584  0.41254738  0.50275012     0.13300
H65         H  0.02589597  0.58629196  0.50572108     0.13300
H66         H  0.97977250  0.58858570  0.50978885     0.13300
H67         H  0.01783477  0.49867460  0.50123053     0.26500
H68         H  0.97901634  0.50060851  0.50481808     0.26500
N69         N  0.50796108  0.50683845  0.96505674    -0.36300
N70         N  0.47033346  0.51041968  0.00011108    -0.56800
N71         N  0.50533703  0.51106514  0.03677446    -0.36200
N72         N  0.54294899  0.50929774  0.00191081    -0.56800
C73         C  0.48926332  0.51129136  0.95105046     0.27300
C74         C  0.52764208  0.51053295  0.95213433     0.27300
C75         C  0.48589031  0.51615077  0.04945563     0.27300
C76         C  0.52413810  0.51628108  0.05033636     0.27300
C77         C  0.45731399  0.50583361  0.98075995     0.36000
C78         C  0.45601618  0.50725570  0.01886207     0.36000
C79         C  0.55698342  0.50329962  0.98367895     0.36000
C80         C  0.55562264  0.50584290  0.02171180     0.36000
C81         C  0.49714138  0.51766527  0.92885285    -0.21500
C82         C  0.52134877  0.51733457  0.92958202    -0.21500
C83         C  0.49238656  0.52473031  0.07134593    -0.21500
C84         C  0.51655652  0.52483483  0.07190152    -0.21500
C85         C  0.43446799  0.50022781  0.98724841    -0.22600
C86         C  0.43368730  0.50102995  0.01140001    -0.22600
C87         C  0.57876191  0.49619198  0.99192790    -0.22600
C88         C  0.57792923  0.49788924  0.01604184    -0.22600
C89         C  0.46535326  0.50799441  0.95727777    -0.17900
C90         C  0.55100195  0.50612109  0.95967781    -0.17900
C91         C  0.54774574  0.51102171  0.04473720    -0.17900
C92         C  0.46254952  0.51120528  0.04254707    -0.17900
H93         H  0.48655822  0.52182797  0.91359818     0.15000
H94         H  0.53298143  0.52115528  0.91500956     0.15000
H95         H  0.48090504  0.52985324  0.08563157     0.15000
H96         H  0.52730600  0.52997244  0.08676076     0.15000
H97         H  0.41982987  0.49611211  0.97578803     0.13300
H98         H  0.41838158  0.49769578  0.02220758     0.13300
H99         H  0.59379308  0.49074277  0.98162455     0.13300
H100        H  0.59217621  0.49392295  0.02801150     0.13300
H101        H  0.50722598  0.49891171  0.98147564     0.26500
H102        H  0.50576179  0.50142366  0.02127726     0.26500
N103        N  0.99131893  0.46618329  0.00090572    -0.36300
N104        N  0.99450076  0.50204204  0.03681091    -0.56800
N105        N  0.99772307  0.53802548  0.00031330    -0.36200
N106        N  0.99661205  0.50237629  0.96433328    -0.56800
C107        C  0.99399460  0.45244948  0.02021785     0.27300
C108        C  0.99507099  0.45254523  0.98175620     0.27300
C109        C  0.00304662  0.55086116  0.01960740     0.27300
C110        C  0.00359617  0.55107909  0.98130716     0.27300
C111        C  0.98956596  0.48353136  0.05080108     0.36000
C112        C  0.99254774  0.52138446  0.05038923     0.36000
C113        C  0.99215915  0.48354987  0.95057655     0.36000
C114        C  0.99483119  0.52149880  0.95035031     0.36000
C115        C  0.99883463  0.42967112  0.01320347    -0.21500
C116        C  0.99948761  0.42971592  0.98896898    -0.21500
C117        C  0.01219123  0.57239269  0.01279112    -0.21500
C118        C  0.01251085  0.57253353  0.98860677    -0.21500
C119        C  0.98460225  0.49114671  0.07343045    -0.22600
C120        C  0.98640199  0.51514897  0.07314807    -0.22600
C121        C  0.98786607  0.49074208  0.92765823    -0.22600
C122        C  0.98942731  0.51478909  0.92755361    -0.22600
C123        C  0.99144021  0.45976561  0.04396529    -0.17900
C124        C  0.99355895  0.45986390  0.95792524    -0.17900
C125        C  0.99950583  0.54479903  0.95758412    -0.17900
C126        C  0.99828289  0.54438439  0.04313755    -0.17900
H127        H  0.00154043  0.41454943  0.02437479     0.15000
H128        H  0.00276841  0.41459315  0.97792062     0.15000
H129        H  0.01768958  0.58670422  0.02406710     0.15000
H130        H  0.01832204  0.58693223  0.97764140     0.15000
H131        H  0.98049529  0.48050139  0.08864704     0.13300
H132        H  0.98402011  0.52665146  0.08812395     0.13300
H133        H  0.98417184  0.47979133  0.91252694     0.13300
H134        H  0.98723420  0.52600906  0.91236282     0.13300
H135        H  0.98522955  0.48307685  0.00062466     0.26500
H136        H  0.98802636  0.52283662  0.00016477     0.26500
N137        N  0.46198685  0.99736637  0.00124931    -0.36300
N138        N  0.50055394  0.96391505  0.00072615    -0.56800
N139        N  0.53397625  0.00243357  0.99837698    -0.36200
N140        N  0.49535879  0.03593406  0.99660391    -0.56800
C141        C  0.44975902  0.97710628  0.99896451     0.27300
C142        C  0.44694499  0.01522710  0.99701559     0.27300
C143        C  0.54839645  0.98407605  0.99401957     0.27300
C144        C  0.54577978  0.02218139  0.99249791     0.27300
C145        C  0.48275188  0.94891534  0.00530433     0.36000
C146        C  0.52062235  0.95174577  0.00399731     0.36000
C147        C  0.47549511  0.04853716  0.99978127     0.36000
C148        C  0.51349065  0.05120328  0.99842517     0.36000
C149        C  0.42650991  0.98219868  0.99364736    -0.21500
C150        C  0.42474703  0.00623106  0.99240274    -0.21500
C151        C  0.56971426  0.99227038  0.98551133    -0.21500
C152        C  0.56813575  0.01632207  0.98472510    -0.21500
C153        C  0.49154114  0.92703532  0.01122804    -0.22600
C154        C  0.51554247  0.92887933  0.01058477    -0.22600
C155        C  0.48103403  0.07199755  0.00318779    -0.22600
C156        C  0.50509906  0.07368091  0.00233453    -0.22600
C157        C  0.45865587  0.95421470  0.00282606    -0.17900
C158        C  0.45234312  0.03945157  0.99851123    -0.17900
C159        C  0.53745499  0.04540625  0.99528356    -0.17900
C160        C  0.54337490  0.96024372  0.99885052    -0.17900
H161        H  0.41219413  0.96990995  0.99116716     0.15000
H162        H  0.40884704  0.01597205  0.98875167     0.15000
H163        H  0.58497950  0.98201187  0.98073103     0.15000
H164        H  0.58196497  0.02813289  0.97915900     0.15000
H165        H  0.48171242  0.91129798  0.01535704     0.13300
H166        H  0.52783830  0.91482365  0.01401711     0.13300
H167        H  0.46898753  0.08643216  0.00586816     0.13300
H168        H  0.51524174  0.08966325  0.00416794     0.13300
H169        H  0.47887951  0.99900403  0.00784283     0.26500
H170        H  0.51816407  0.00176417  0.00742715     0.26500
Zn171      Zn  0.77802260  0.76104263  0.72927845     1.49700
Zn172      Zn  0.73554338  0.78029462  0.75987960     1.49400
Zn173      Zn  0.72959293  0.73202710  0.73037849     1.49100
Zn174      Zn  0.76270979  0.73353183  0.77573242     1.49500
O175        O  0.75131608  0.75171669  0.74880750    -1.83800
O176        O  0.78269459  0.79624355  0.72902360    -0.74400
O177        O  0.70149668  0.78001778  0.74965815    -0.74200
O178        O  0.74071382  0.72899084  0.69666315    -0.73700
O179        O  0.75159943  0.81007966  0.74784931    -0.74400
O180        O  0.77368664  0.74994079  0.69591529    -0.74000
O181        O  0.69703478  0.74627659  0.73035932    -0.74600
O182        O  0.75091750  0.70003803  0.77467043    -0.74000
O183        O  0.73542741  0.78147328  0.79549476    -0.74700
O184        O  0.72750719  0.69890704  0.74338985    -0.74100
O185        O  0.75212479  0.74796228  0.80631961    -0.74600
O186        O  0.79814005  0.73199526  0.77593846    -0.74500
O187        O  0.80812497  0.74710781  0.74140538    -0.74300
C188        C  0.77066609  0.81350954  0.73652681     0.77500
C189        C  0.68869424  0.76538985  0.73848094     0.78000
C190        C  0.75852504  0.73700573  0.68568799     0.76900
C191        C  0.73718713  0.68888747  0.76091615     0.77300
C192        C  0.74194963  0.76718366  0.81143391     0.78500
C193        C  0.81365167  0.73711001  0.76062622     0.77500
Zn194      Zn  0.24051397  0.73177010  0.77508232     1.49700
Zn195      Zn  0.27145042  0.77526611  0.75637974     1.49400
Zn196      Zn  0.26899652  0.72695580  0.72656702     1.49100
Zn197      Zn  0.22410625  0.76089383  0.72962852     1.49500
O198        O  0.25137536  0.74870855  0.74691729    -1.83800
O199        O  0.25240412  0.74720488  0.80479341    -0.74400
O200        O  0.30464145  0.77088685  0.74382673    -0.74200
O201        O  0.27104234  0.69441602  0.74113815    -0.73700
O202        O  0.27325054  0.77760643  0.79206693    -0.74400
O203        O  0.25246411  0.69825754  0.77535141    -0.74000
O204        O  0.30251356  0.73820669  0.72235011    -0.74600
O205        O  0.22356110  0.74898995  0.69625016    -0.74000
O206        O  0.25840518  0.80640394  0.74440582    -0.74700
O207        O  0.25404007  0.72464102  0.69418251    -0.74100
O208        O  0.22410557  0.79658090  0.72856830    -0.74600
O209        O  0.19389129  0.75002210  0.74446056    -0.74500
O210        O  0.20489520  0.73119324  0.77671625    -0.74300
C211        C  0.26499263  0.76525502  0.80885255     0.77500
C212        C  0.31410500  0.75552745  0.73053850     0.78000
C213        C  0.26420833  0.68598581  0.76075647     0.76900
C214        C  0.23630447  0.73462004  0.68483323     0.77300
C215        C  0.23912334  0.81214364  0.73450121     0.78500
C216        C  0.18880259  0.73882583  0.76314009     0.77500
Zn217      Zn  0.77275772  0.23893065  0.73129312     1.49700
Zn218      Zn  0.75811045  0.26636659  0.77792039     1.49400
Zn219      Zn  0.72381730  0.26722228  0.73273709     1.49100
Zn220      Zn  0.72969499  0.22024763  0.76319008     1.49500
O221        O  0.74602750  0.24816910  0.75118691    -1.83800
O222        O  0.80390216  0.25025762  0.74460833    -0.74400
O223        O  0.74644135  0.29956815  0.77667593    -0.74200
O224        O  0.73555281  0.27174259  0.69935548    -0.73700
O225        O  0.79364038  0.26770797  0.77795834    -0.74400
O226        O  0.76956033  0.25259243  0.69859613    -0.74000
O227        O  0.72140774  0.29995762  0.74655135    -0.74600
O228        O  0.69518283  0.22015103  0.75351199    -0.74000
O229        O  0.74766400  0.25272233  0.80891584    -0.74700
O230        O  0.69123730  0.25207934  0.73153503    -0.74100
O231        O  0.73101478  0.21897953  0.79892682    -0.74600
O232        O  0.74473511  0.19072891  0.75030911    -0.74500
O233        O  0.77473423  0.20361444  0.72884307    -0.74300
C234        C  0.80936130  0.26106956  0.76346613     0.77500
C235        C  0.73188598  0.31024801  0.76351228     0.78000
C236        C  0.75408970  0.26528391  0.68858250     0.76900
C237        C  0.68258026  0.23356040  0.74074445     0.77300
C238        C  0.73773547  0.23352877  0.81461587     0.78500
C239        C  0.76253007  0.18683574  0.73725213     0.77500
Zn240      Zn  0.27457177  0.26346495  0.76542692     1.49700
Zn241      Zn  0.25533746  0.23338192  0.72168231     1.49400
Zn242      Zn  0.22708315  0.23385801  0.77104538     1.49100
Zn243      Zn  0.22832969  0.27999889  0.73845840     1.49500
O244        O  0.24626303  0.25255152  0.74907976    -1.83800
O245        O  0.30379353  0.25079913  0.75018048    -0.74400
O246        O  0.24192085  0.20032528  0.72470213    -0.74200
O247        O  0.24206513  0.23222258  0.80344163    -0.73700
O248        O  0.29105174  0.23090356  0.71916689    -0.74400
O249        O  0.27542456  0.25206126  0.79884906    -0.74000
O250        O  0.22352427  0.20047615  0.75930195    -0.74600
O251        O  0.19523609  0.27881079  0.75082207    -0.74000
O252        O  0.24302608  0.24769782  0.69131057    -0.74700
O253        O  0.19436313  0.24752728  0.77414915    -0.74100
O254        O  0.22583204  0.28077505  0.70291340    -0.74600
O255        O  0.24278173  0.31043546  0.75025254    -0.74500
O256        O  0.27617924  0.29891702  0.76671379    -0.74300
C257        C  0.30787381  0.23837984  0.73202520     0.77500
C258        C  0.23004356  0.18993145  0.74064368     0.78000
C259        C  0.26151397  0.23995376  0.81146847     0.76900
C260        C  0.18434030  0.26521090  0.76482969     0.77300
C261        C  0.23192389  0.26656546  0.68669897     0.78500
C262        C  0.26193043  0.31514040  0.76092526     0.77500
Zn263      Zn  0.76013556  0.73312889  0.22057450     1.49700
Zn264      Zn  0.73291255  0.77806474  0.23867465     1.49400
Zn265      Zn  0.72976755  0.72979547  0.26775481     1.49100
Zn266      Zn  0.77726260  0.75966744  0.26787922     1.49500
O267        O  0.75007906  0.75013455  0.24880802    -1.83800
O268        O  0.74808489  0.74809099  0.19064241    -0.74400
O269        O  0.69937527  0.77674639  0.24959203    -0.74200
O270        O  0.72813566  0.69697373  0.25426897    -0.73700
O271        O  0.73215720  0.78117323  0.20341713    -0.74400
O272        O  0.74889949  0.69955180  0.22118807    -0.74000
O273        O  0.69701199  0.74295593  0.26902260    -0.74600
O274        O  0.77558183  0.74618137  0.30086878    -0.74000
O275        O  0.74766032  0.80746574  0.25133166    -0.74700
O276        O  0.74152700  0.72701044  0.30113385    -0.74100
O277        O  0.77892658  0.79502952  0.27117953    -0.74600
O278        O  0.80730837  0.74897331  0.25228030    -0.74500
O279        O  0.79542252  0.73273155  0.21869745    -0.74300
C280        C  0.73804175  0.76762493  0.18663746     0.77500
C281        C  0.68766911  0.76170646  0.26127751     0.78000
C282        C  0.73650862  0.68779769  0.23563968     0.76900
C283        C  0.76008481  0.73401414  0.31152905     0.77300
C284        C  0.76590534  0.81154405  0.26362334     0.78500
C285        C  0.81175764  0.73908158  0.23265301     0.77500
Zn286      Zn  0.26895463  0.72747992  0.26865685     1.49700
Zn287      Zn  0.23806190  0.73381271  0.22174885     1.49400
Zn288      Zn  0.22459109  0.76258029  0.26770463     1.49100
Zn289      Zn  0.27199967  0.77453694  0.23854912     1.49500
O290        O  0.25087249  0.74958924  0.24935493    -1.83800
O291        O  0.26944865  0.69539151  0.25349891    -0.74400
O292        O  0.20287489  0.73504843  0.22127780    -0.74200
O293        O  0.22476404  0.74939837  0.30071031    -0.73700
O294        O  0.24808527  0.69970088  0.22091252    -0.74400
O295        O  0.25489778  0.72450161  0.30108434    -0.74000
O296        O  0.19269196  0.75390080  0.25362949    -0.74600
O297        O  0.26183050  0.80548122  0.25232609    -0.74000
O298        O  0.24869279  0.74922006  0.19190153    -0.74700
O299        O  0.22795608  0.79796831  0.27026306    -0.74100
O300        O  0.27309792  0.77697679  0.20289170    -0.74600
O301        O  0.30501250  0.76944792  0.24977522    -0.74500
O302        O  0.30265991  0.73816771  0.27284385    -0.74300
C303        C  0.26050537  0.68715568  0.23466386     0.77500
C304        C  0.18704349  0.74283729  0.23494908     0.78000
C305        C  0.23758817  0.73440173  0.31119526     0.76900
C306        C  0.24405377  0.81231780  0.26408119     0.77300
C307        C  0.26266867  0.76574610  0.18657327     0.78500
C308        C  0.31442095  0.75496413  0.26390557     0.77500
Zn309      Zn  0.73012359  0.22407867  0.24217094     1.49700
Zn310      Zn  0.73122657  0.27178502  0.27130065     1.49400
Zn311      Zn  0.77710739  0.23825011  0.27074326     1.49100
Zn312      Zn  0.76319433  0.26648158  0.22457071     1.49500
O313        O  0.75039838  0.25016002  0.25221984    -1.83800
O314        O  0.69675788  0.22776409  0.25427269    -0.74400
O315        O  0.74392307  0.27344765  0.30445698    -0.74200
O316        O  0.77623125  0.20271384  0.27203905    -0.73700
O317        O  0.69686145  0.26168531  0.27354748    -0.74400
O318        O  0.74265713  0.19310271  0.25444742    -0.74000
O319        O  0.77537335  0.25025736  0.30420705    -0.74600
O320        O  0.79894277  0.26675212  0.22434740    -0.74000
O321        O  0.73227764  0.30443829  0.25765997    -0.74700
O322        O  0.80875982  0.24901763  0.25760206    -0.74100
O323        O  0.75325213  0.30046720  0.22484410    -0.74600
O324        O  0.75128345  0.25177324  0.19437420    -0.74500
O325        O  0.72844103  0.22249048  0.20662820    -0.74300
C326        C  0.68616213  0.24339874  0.26628389     0.77500
C327        C  0.76141889  0.26413816  0.31484367     0.78000
C328        C  0.76124420  0.18733361  0.26555919     0.76900
C329        C  0.81453799  0.26005799  0.23897098     0.77300
C330        C  0.74142884  0.31302068  0.23910913     0.78500
C331        C  0.73755024  0.23458827  0.19011884     0.77500
N332        N  0.00472844  0.99919347  0.46113289    -0.36300
N333        N  0.96839697  0.99880593  0.49697194    -0.56800
N334        N  0.00465663  0.99761061  0.53375092    -0.36200
N335        N  0.04101767  0.00090027  0.49789776    -0.56800
C336        C  0.98558457  0.00293383  0.44742566     0.27300
C337        C  0.02402261  0.00339517  0.44785515     0.27300
C338        C  0.98526243  0.99971294  0.54735065     0.27300
C339        C  0.02364550  0.00097742  0.54775896     0.27300
C340        C  0.95451073  0.99636858  0.47779889     0.36000
C341        C  0.95440857  0.99562229  0.51590999     0.36000
C342        C  0.05499833  0.99830865  0.47886129     0.36000
C343        C  0.05498855  0.99830376  0.51698322     0.36000
C344        C  0.99284758  0.00926333  0.42502885    -0.21500
C345        C  0.01707823  0.00948775  0.42527785    -0.21500
C346        C  0.99205948  0.00372957  0.57047685    -0.21500
C347        C  0.01621889  0.00459274  0.57071455    -0.21500
C348        C  0.93157312  0.99178137  0.48460384    -0.22600
C349        C  0.93145920  0.99152784  0.50868401    -0.22600
C350        C  0.07801205  0.99441657  0.48592119    -0.22600
C351        C  0.07801721  0.99454224  0.51003224    -0.22600
C352        C  0.96178415  0.99964331  0.45422036    -0.17900
C353        C  0.04771473  0.00057402  0.45514348    -0.17900
C354        C  0.04753201  0.99995264  0.54067232    -0.17900
C355        C  0.96158821  0.99753465  0.53970375    -0.17900
H356        H  0.98183456  0.01309157  0.40998773     0.15000
H357        H  0.02831083  0.01354044  0.41045720     0.15000
H358        H  0.98080851  0.00580272  0.58568635     0.15000
H359        H  0.02706346  0.00743374  0.58611218     0.15000
H360        H  0.91637847  0.98925782  0.47341101     0.13300
H361        H  0.91611549  0.98874485  0.51957717     0.13300
H362        H  0.09329487  0.99193795  0.47486181     0.13300
H363        H  0.09325066  0.99205212  0.52115929     0.13300
H364        H  0.00477663  0.99162932  0.47758618     0.26500
H365        H  0.00489600  0.99227652  0.51647544     0.26500
C366        C  0.20649305  0.97812103  0.30972273     0.03500
C367        C  0.21289671  0.00007547  0.30036132    -0.12700
C368        C  0.20197381  0.02064973  0.30862728     0.01000
C369        C  0.18466383  0.01904321  0.32614022    -0.11200
C370        C  0.17836563  0.99725842  0.33560022     0.03500
C371        C  0.18941274  0.97690521  0.32748927    -0.10600
H372        H  0.22598476  0.00110659  0.28655669     0.09100
H373        H  0.17596049  0.03479354  0.33232352     0.06600
H374        H  0.18421741  0.95999983  0.33452341     0.06400
Zn375      Zn  0.27684744  0.25863762  0.22743740     1.49700
Zn376      Zn  0.22640085  0.23179545  0.23054978     1.49400
Zn377      Zn  0.26215464  0.23039404  0.27424905     1.49100
Zn378      Zn  0.23660480  0.27820023  0.26150930     1.49500
O379        O  0.25052616  0.24967240  0.24817005    -1.83800
O380        O  0.27173976  0.24435410  0.19481654    -0.74400
O381        O  0.22189113  0.19913485  0.24450968    -0.74200
O382        O  0.29774402  0.22926969  0.27442573    -0.73700
O383        O  0.23673473  0.22701552  0.19644740    -0.74400
O384        O  0.30854885  0.24718468  0.24141617    -0.74000
O385        O  0.24988007  0.19730793  0.27182044    -0.74600
O386        O  0.23595696  0.27735951  0.29701502    -0.74000
O387        O  0.19491635  0.24901587  0.23086826    -0.74700
O388        O  0.25087886  0.24258292  0.30578054    -0.74100
O389        O  0.20272503  0.28157229  0.25115049    -0.74600
O390        O  0.25367359  0.30735313  0.25070120    -0.74500
O391        O  0.27798974  0.29449696  0.22329139    -0.74300
C392        C  0.25519660  0.23268779  0.18501637     0.77500
C393        C  0.23334927  0.18780108  0.26007073     0.78000
C394        C  0.31376108  0.23608768  0.26029767     0.76900
C395        C  0.24113509  0.26167475  0.31207126     0.77300
C396        C  0.18856318  0.26867358  0.23953712     0.78500
C397        C  0.26840358  0.31148568  0.23436325     0.77500
C398        C  0.97984382  0.31465491  0.20376235     0.03500
C399        C  0.00216463  0.30831689  0.21237817    -0.12700
C400        C  0.02250403  0.31974501  0.20403590     0.01000
C401        C  0.02039071  0.33746427  0.18705632    -0.11200
C402        C  0.99827775  0.34377494  0.17827910     0.03500
C403        C  0.97808822  0.33249041  0.18679320    -0.10600
H404        H  0.00374286  0.29427830  0.22511106     0.09100
H405        H  0.03604294  0.34585922  0.18014364     0.06600
H406        H  0.96101986  0.33716694  0.17974807     0.06400
C407        C  0.29946186  0.19085954  0.01908509     0.03500
C408        C  0.31680560  0.17337605  0.02064820    -0.12700
C409        C  0.32840052  0.16541921  0.00040235     0.01000
C410        C  0.32300555  0.17526906  0.97851336    -0.11200
C411        C  0.30584300  0.19274955  0.97661421     0.03500
C412        C  0.29399037  0.20048724  0.99692527    -0.10600
H413        H  0.32104044  0.16572974  0.03757652     0.09100
H414        H  0.33177776  0.16890137  0.96282713     0.06600
H415        H  0.28039122  0.21368655  0.99545295     0.06400
C416        C  0.47897986  0.19523373  0.31421293     0.03500
C417        C  0.47985327  0.17578630  0.32933039    -0.12700
C418        C  0.50135740  0.16759711  0.33807434     0.01000
C419        C  0.52236605  0.17847546  0.33110177    -0.11200
C420        C  0.52194116  0.19764953  0.31559179     0.03500
C421        C  0.50017789  0.20618088  0.30743593    -0.10600
H422        H  0.46369010  0.16712399  0.33452987     0.09100
H423        H  0.53902426  0.17191331  0.33757443     0.06600
H424        H  0.49977337  0.22102048  0.29555160     0.06400
C425        C  0.80288941  0.02081552  0.30943480     0.03500
C426        C  0.82015320  0.02055014  0.32718621    -0.12700
C427        C  0.82918449  0.99921968  0.33553337     0.01000
C428        C  0.82066841  0.97812636  0.32630146    -0.11200
C429        C  0.80390616  0.97803382  0.30819668     0.03500
C430        C  0.79490819  0.99945657  0.29984688    -0.10600
H431        H  0.82685204  0.03694420  0.33419299     0.09100
H432        H  0.82778652  0.96166610  0.33263914     0.06600
H433        H  0.78219577  0.99953568  0.28564757     0.06400
C434        C  0.69110336  0.19131730  0.02387380     0.03500
C435        C  0.67149076  0.17646023  0.02135284    -0.12700
C436        C  0.66365325  0.16961670  0.99899501     0.01000
C437        C  0.67441109  0.17890884  0.97892015    -0.11200
C438        C  0.69350042  0.19436141  0.98104806     0.03500
C439        C  0.70224323  0.19999445  0.00348245    -0.10600
H440        H  0.66260208  0.16975203  0.03681441     0.09100
H441        H  0.66817324  0.17381853  0.96162129     0.06600
H442        H  0.71756292  0.21120927  0.00504071    -0.07000
C443        C  0.69499322  0.52054948  0.19829354     0.03500
C444        C  0.70449752  0.49964973  0.20714444    -0.12700
C445        C  0.69587437  0.47792474  0.19918868     0.01000
C446        C  0.67767484  0.47729414  0.18242449    -0.11200
C447        C  0.66822008  0.49825497  0.17365098     0.03500
C448        C  0.67694574  0.51973754  0.18164418    -0.10600
H449        H  0.71857934  0.50027950  0.21997321     0.09100
H450        H  0.67106195  0.46059431  0.17610060     0.06600
H451        H  0.66978534  0.53594261  0.17470854     0.06400
C452        C  0.79430238  0.31696083  0.48072369     0.03500
C453        C  0.78482159  0.30898477  0.50218492    -0.12700
C454        C  0.79361384  0.31768303  0.52369904     0.01000
C455        C  0.81178987  0.33435840  0.52351537    -0.11200
C456        C  0.82118221  0.34224596  0.50217787     0.03500
C457        C  0.81246803  0.33353598  0.48093019    -0.10600
H458        H  0.77094088  0.29594822  0.50215252     0.09100
H459        H  0.81881160  0.34098161  0.53997296     0.06600
H460        H  0.82001780  0.33952462  0.46447278     0.06400
C461        C  0.30896780  0.47963817  0.19079637     0.03500
C462        C  0.29852456  0.50053740  0.19895665    -0.12700
C463        C  0.30669570  0.52245284  0.19084278     0.01000
C464        C  0.32530589  0.52328909  0.17467163    -0.11200
C465        C  0.33568806  0.50260216  0.16647462     0.03500
C466        C  0.32752936  0.48087133  0.17458514    -0.10600
H467        H  0.28415035  0.49975317  0.21142922     0.09100
H468        H  0.33161995  0.54008836  0.16832806     0.06600
H469        H  0.33556472  0.46486397  0.16816731     0.06400
C470        C  0.02092593  0.69730946  0.19316972     0.03500
C471        C  0.02166639  0.67908123  0.17662966    -0.12700
C472        C  0.00084928  0.66992784  0.16718037     0.01000
C473        C  0.97916446  0.67887401  0.17456059    -0.11200
C474        C  0.97821001  0.69701114  0.19122695     0.03500
C475        C  0.99915985  0.70625685  0.20052897    -0.10600
H476        H  0.03847988  0.67228193  0.17081282     0.09100
H477        H  0.96303187  0.67188067  0.16717037     0.06600
H478        H  0.99853391  0.72047737  0.21318209     0.06400
C479        C  0.29822093  0.81208191  0.01910568     0.03500
C480        C  0.31652806  0.82842683  0.02103513    -0.12700
C481        C  0.32771170  0.83697693  0.00095509     0.01000
C482        C  0.32032932  0.82954563  0.97867932    -0.11200
C483        C  0.30160013  0.81363994  0.97633112     0.03500
C484        C  0.29050969  0.80485988  0.99670298    -0.10600
H485        H  0.32269741  0.83381847  0.03827627     0.09100
H486        H  0.32934607  0.83595076  0.96315314     0.06600
H487        H  0.27645954  0.79209662  0.99514933     0.06400
C488        C  0.52242943  0.79247700  0.31344866     0.03500
C489        C  0.50115492  0.78265349  0.30567015    -0.12700
C490        C  0.47967475  0.79136973  0.31418249     0.01000
C491        C  0.47974364  0.80979336  0.33058834    -0.11200
C492        C  0.50097780  0.81917384  0.33873633     0.03500
C493        C  0.52226660  0.81050686  0.33017017    -0.10600
H494        H  0.50130817  0.76868757  0.29271829     0.09100
H495        H  0.46326000  0.81693019  0.33691791     0.06600
H496        H  0.53869436  0.81820584  0.33605893     0.06400
C497        C  0.19684860  0.68625118  0.47642248     0.03500
C498        C  0.17934052  0.66898383  0.47679133    -0.12700
C499        C  0.17051736  0.66071041  0.49817524     0.01000
C500        C  0.17909913  0.66978372  0.51934940    -0.11200
C501        C  0.19655434  0.68713171  0.51928588     0.03500
C502        C  0.20551635  0.69539816  0.49774154    -0.10600
H503        H  0.17247499  0.66205116  0.46038799     0.09100
H504        H  0.17209388  0.66342601  0.53590427     0.06600
H505        H  0.21890383  0.70893865  0.49756730     0.06400
C506        C  0.69761369  0.81428008  0.02001436     0.03500
C507        C  0.70749593  0.80454459  0.99952322    -0.12700
C508        C  0.69876115  0.81082485  0.97726212     0.01000
C509        C  0.67985224  0.82657888  0.97565557    -0.11200
C510        C  0.67026138  0.83686168  0.99594258     0.03500
C511        C  0.67935240  0.83066680  0.01803475    -0.10600
H512        H  0.72190702  0.79222062  0.00089598     0.09100
H513        H  0.67284831  0.83111390  0.95851866     0.06600
H514        H  0.67202921  0.83846697  0.03381449     0.06400
C515        C  0.19394529  0.30743391  0.47625343     0.03500
C516        C  0.17570336  0.32380020  0.47419642    -0.12700
C517        C  0.16486066  0.33292332  0.49427968     0.01000
C518        C  0.17212319  0.32555995  0.51659831    -0.11200
C519        C  0.19048982  0.30935192  0.51905410     0.03500
C520        C  0.20144625  0.30028368  0.49875138    -0.10600
H521        H  0.16985368  0.32935602  0.45692342     0.09100
H522        H  0.16352134  0.33254789  0.53211169     0.06600
H523        H  0.21558227  0.28768700  0.50043602     0.06400
C524        C  0.97504229  0.30419537  0.81097587     0.03500
C525        C  0.97530617  0.32275981  0.82724570    -0.12700
C526        C  0.99666745  0.33213940  0.83521231     0.01000
C527        C  0.01787214  0.32308047  0.82672044    -0.11200
C528        C  0.01798082  0.30440444  0.81059951     0.03500
C529        C  0.99646317  0.29491323  0.80280122    -0.10600
H530        H  0.95888114  0.32991921  0.83369033     0.09100
H531        H  0.03435910  0.33052536  0.83276249     0.06600
H532        H  0.99638008  0.28049715  0.79035862     0.06400
C533        C  0.19015123  0.97948377  0.70016476     0.03500
C534        C  0.17420232  0.98025304  0.68132467    -0.12700
C535        C  0.16531419  0.00170085  0.67332012     0.01000
C536        C  0.17246368  0.02260257  0.68409980    -0.11200
C537        C  0.18854901  0.02229113  0.70279137     0.03500
C538        C  0.19739121  0.00065309  0.71089527    -0.10600
H539        H  0.16872422  0.96410183  0.67283036     0.09100
H540        H  0.16575834  0.03920213  0.67768612     0.06600
H541        H  0.20992688  0.00030497  0.72523956     0.06400
C542        C  0.47398007  0.19044286  0.69083835     0.03500
C543        C  0.47381658  0.17212518  0.67433466    -0.12700
C544        C  0.49487247  0.16201033  0.66666816     0.01000
C545        C  0.51635201  0.17022670  0.67567487    -0.11200
C546        C  0.51691374  0.18857394  0.69225049     0.03500
C547        C  0.49558912  0.19867363  0.69977624    -0.10600
H548        H  0.45723322  0.16573482  0.66741180     0.09100
H549        H  0.53264743  0.16236974  0.66974765     0.06600
H550        H  0.49580781  0.21285040  0.71248940     0.06400
C551        C  0.31121001  0.47917706  0.80826836     0.03500
C552        C  0.30269921  0.50078765  0.79977207    -0.12700
C553        C  0.31169668  0.52205720  0.80869995     0.01000
C554        C  0.32919502  0.52158412  0.82605103    -0.11200
C555        C  0.33783136  0.50020762  0.83444482     0.03500
C556        C  0.32872983  0.47909121  0.82568482    -0.10600
H557        H  0.28929281  0.50104959  0.78623261     0.09100
H558        H  0.33628336  0.53790478  0.83286546     0.06600
H559        H  0.33540651  0.46256712  0.83230877     0.06400
C560        C  0.81777164  0.02301287  0.69772285     0.03500
C561        C  0.83333679  0.02321590  0.67858185    -0.12700
C562        C  0.84203159  0.00222370  0.66933985     0.01000
C563        C  0.83498927  0.98079828  0.67893138    -0.11200
C564        C  0.81946609  0.98006170  0.69802637     0.03500
C565        C  0.81086255  0.00128558  0.70753149    -0.10600
H566        H  0.83862682  0.03975467  0.67078564     0.09100
H567        H  0.84156958  0.96458897  0.67142512     0.06600
H568        H  0.79873373  0.00089032  0.72221327     0.06400
C569        C  0.02229171  0.69835512  0.80749780     0.03500
C570        C  0.02229780  0.68137559  0.82539093    -0.12700
C571        C  0.00104874  0.67238242  0.83411296     0.01000
C572        C  0.97974173  0.68051891  0.82485472    -0.11200
C573        C  0.97952555  0.69731319  0.80684004     0.03500
C574        C  0.00085092  0.70625652  0.79818948    -0.10600
H575        H  0.03883371  0.67508217  0.83242916     0.09100
H576        H  0.96328180  0.67359635  0.83152685     0.06600
H577        H  0.00076144  0.71929874  0.78433344     0.06400
C578        C  0.52258735  0.79927787  0.69030816     0.03500
C579        C  0.52150333  0.81660733  0.67287272    -0.12700
C580        C  0.49989267  0.82309656  0.66310958     0.01000
C581        C  0.47920365  0.81241919  0.67109991    -0.11200
C582        C  0.48005743  0.79533412  0.68880793     0.03500
C583        C  0.50179985  0.78862452  0.69830338    -0.10600
H584        H  0.53752120  0.82499793  0.66683605     0.09100
H585        H  0.46241731  0.81756279  0.66370836     0.06600
H586        H  0.50251717  0.77540663  0.71197055     0.06400
C587        C  0.69865353  0.52157950  0.80266435     0.03500
C588        C  0.70589371  0.49995267  0.79318007    -0.12700
C589        C  0.69758445  0.47879559  0.80288985     0.01000
C590        C  0.68198426  0.47943710  0.82203940    -0.11200
C591        C  0.67464392  0.50090740  0.83155626     0.03500
C592        C  0.68314081  0.52189407  0.82187552    -0.10600
H593        H  0.71779092  0.49958972  0.77830293     0.09100
H594        H  0.67536421  0.46318002  0.82940073     0.06600
H595        H  0.67744334  0.53853551  0.82913488     0.06400
C596        C  0.79641160  0.68619475  0.52034446     0.03500
C597        C  0.81584283  0.67099435  0.52076741    -0.12700
C598        C  0.82566548  0.66261461  0.49976598     0.01000
C599        C  0.81622614  0.66972733  0.47815315    -0.11200
C600        C  0.79694607  0.68502425  0.47740782     0.03500
C601        C  0.78694178  0.69308486  0.49855098    -0.10600
H602        H  0.82332130  0.66566479  0.53746858     0.09100
H603        H  0.82399224  0.66348814  0.46189777     0.06600
H604        H  0.77202209  0.70486260  0.49803281     0.06400
C605        C  0.23514468  0.26562043  0.33728485     0.01700
C606        C  0.21312604  0.27548735  0.34341548     0.04500
C607        C  0.20775170  0.28029325  0.36710537    -0.11500
C608        C  0.22402510  0.27494483  0.38495638     0.23800
C609        C  0.24550489  0.26418308  0.37913682    -0.12100
C610        C  0.25117124  0.25962682  0.35539907     0.05200
C611        C  0.21882335  0.28183231  0.40965991     0.27600
C612        C  0.22633108  0.30388269  0.41806313    -0.12800
C613        C  0.21920207  0.31175344  0.44043310     0.05700
C614        C  0.20443316  0.29765006  0.45448710    -0.08800
C615        C  0.19739812  0.27534579  0.44630150     0.06600
C616        C  0.20475667  0.26736514  0.42402410    -0.13100
Br617      Br  0.26723745  0.25607768  0.40388389    -0.05200
Br618      Br  0.18950839  0.28155702  0.31973435     0.00400
Br619      Br  0.22895871  0.34225891  0.45151477     0.00900
Br620      Br  0.19470240  0.23709345  0.41260279    -0.03500
Br621      Br  0.28152526  0.24639128  0.34802581     0.01000
Br622      Br  0.17805939  0.29455011  0.37528286    -0.02800
Br623      Br  0.24544685  0.32375261  0.39831262    -0.03700
Br624      Br  0.17610433  0.25654309  0.46476843     0.00300
C625        C  0.30077644  0.45619155  0.19882632     0.01700
C626        C  0.30873701  0.44694353  0.22040433     0.04500
C627        C  0.30328006  0.42360838  0.22669843    -0.11500
C628        C  0.28970056  0.40940790  0.21150282     0.23800
C629        C  0.28127504  0.41887220  0.19018739    -0.12100
C630        C  0.28691838  0.44210373  0.18380961     0.05200
C631        C  0.28449730  0.38443699  0.21765646     0.27600
C632        C  0.30101238  0.36672972  0.21275950    -0.12800
C633        C  0.29605843  0.34303684  0.21822416     0.05700
C634        C  0.27399079  0.33659719  0.22812165    -0.08800
C635        C  0.25706770  0.35461832  0.23202527     0.06600
C636        C  0.26262654  0.37831981  0.22740474    -0.13100
Br637      Br  0.26234207  0.39973477  0.16950520    -0.05200
Br638      Br  0.32796833  0.46601739  0.24084207     0.00400
Br639      Br  0.32026563  0.32008167  0.21223649     0.00900
Br640      Br  0.24008836  0.40276707  0.23410200    -0.03500
Br641      Br  0.27599641  0.45458490  0.15423885     0.01000
Br642      Br  0.31478655  0.41085515  0.25591203    -0.02800
Br643      Br  0.33045518  0.37518314  0.19806868    -0.03700
Br644      Br  0.22524005  0.34752219  0.24180348     0.00300
C645        C  0.45572736  0.20357048  0.30536414     0.01700
C646        C  0.43867210  0.21222939  0.32125764     0.04500
C647        C  0.41609831  0.21854827  0.31315876    -0.11500
C648        C  0.41018256  0.21596239  0.28919558     0.23800
C649        C  0.42713900  0.20731729  0.27332556    -0.12100
C650        C  0.44986065  0.20134511  0.28129575     0.05200
C651        C  0.38575383  0.22110463  0.28093981     0.27600
C652        C  0.36861323  0.20326989  0.28118302    -0.12800
C653        C  0.34531431  0.20807161  0.27416097     0.05700
C654        C  0.33887983  0.23078362  0.26630295    -0.08800
C655        C  0.35637022  0.24849200  0.26552182     0.06600
C656        C  0.37959678  0.24368990  0.27299754    -0.13100
Br657      Br  0.41873024  0.20268390  0.24077343    -0.05200
Br658      Br  0.44611876  0.21549309  0.35424997     0.00400
Br659      Br  0.32257272  0.18296362  0.27484896     0.00900
Br660      Br  0.40309500  0.26813441  0.27288622    -0.03500
Br661      Br  0.47242195  0.18876328  0.25933371     0.01000
Br662      Br  0.39292613  0.23025289  0.33497453    -0.02800
Br663      Br  0.37730934  0.17208842  0.29118286    -0.03700
Br664      Br  0.34848610  0.27982137  0.25561468     0.00300
C665        C  0.28716046  0.19872142  0.04083918     0.01700
C666        C  0.29157455  0.22121571  0.05027563     0.04500
C667        C  0.28240043  0.22745406  0.07247859    -0.11500
C668        C  0.26929815  0.21106232  0.08570503     0.23800
C669        C  0.26352696  0.18919677  0.07557020    -0.12100
C670        C  0.27241769  0.18304660  0.05322777     0.05200
C671        C  0.26471819  0.21550597  0.11124396     0.27600
C672        C  0.28298449  0.21185464  0.12759522    -0.12800
C673        C  0.27947885  0.21650059  0.15169840     0.05700
C674        C  0.25777933  0.22553073  0.15978919    -0.08800
C675        C  0.23905583  0.22812634  0.14348388     0.06600
C676        C  0.24257236  0.22313013  0.11932977    -0.13100
Br677      Br  0.24419215  0.16730390  0.09275626    -0.05200
Br678      Br  0.31191601  0.24276533  0.03378494     0.00400
Br679      Br  0.30409114  0.20866941  0.17375603     0.00900
Br680      Br  0.21719291  0.22697310  0.09713789    -0.03500
Br681      Br  0.26486978  0.15283218  0.03982008     0.01000
Br682      Br  0.28857696  0.25815863  0.08538874    -0.02800
Br683      Br  0.31301370  0.20025541  0.11681565    -0.03700
Br684      Br  0.20866828  0.23919623  0.15372399     0.00300
C685        C  0.16421530  0.27701800  0.23584114     0.01700
C686        C  0.15947745  0.29372236  0.21821299     0.04500
C687        C  0.13629844  0.30158461  0.21444936    -0.11500
C688        C  0.11776454  0.29307146  0.22855952     0.23800
C689        C  0.12263463  0.27694151  0.24671137    -0.12100
C690        C  0.14576527  0.26875234  0.25018732     0.05200
C691        C  0.09300000  0.29965809  0.22309030     0.27600
C692        C  0.08237244  0.31920914  0.23397656    -0.12800
C693        C  0.05903161  0.32539391  0.22829873     0.05700
C694        C  0.04631775  0.31221214  0.21154430    -0.08800
C695        C  0.05705161  0.29283844  0.20051135     0.06600
C696        C  0.08021111  0.28645169  0.20643133    -0.13100
Br697      Br  0.09745999  0.26593971  0.26657905    -0.05200
Br698      Br  0.18476596  0.30532202  0.19881665     0.00400
Br699      Br  0.04444162  0.35208300  0.24317633     0.00900
Br700      Br  0.09475495  0.25983558  0.19134990    -0.03500
Br701      Br  0.15223203  0.24611781  0.27451023     0.01000
Br702      Br  0.12972926  0.32364022  0.18960743    -0.02800
Br703      Br  0.10004748  0.33776123  0.25619655    -0.03700
Br704      Br  0.04034793  0.27573550  0.17640851     0.00300
C705        C  0.22769330  0.16286707  0.26461960     0.01700
C706        C  0.24453400  0.14543102  0.25964831     0.04500
C707        C  0.23994936  0.12181437  0.26520437    -0.11500
C708        C  0.21878123  0.11553529  0.27639702     0.23800
C709        C  0.20174889  0.13288197  0.28111545    -0.12100
C710        C  0.20609516  0.15648453  0.27501431     0.05200
C711        C  0.21505747  0.09087746  0.28416424     0.27600
C712        C  0.20321601  0.07473178  0.26953428    -0.12800
C713        C  0.19994150  0.05134910  0.27696298     0.05700
C714        C  0.20818622  0.04413759  0.29922997    -0.08800
C715        C  0.22047230  0.06019561  0.31360784     0.06600
C716        C  0.22402143  0.08343599  0.30603793    -0.13100
Br717      Br  0.17279430  0.12429725  0.29653404    -0.05200
Br718      Br  0.27386267  0.15385871  0.24492021     0.00400
Br719      Br  0.18357637  0.02938830  0.25694434     0.00900
Br720      Br  0.24111509  0.10523186  0.32565567    -0.03500
Br721      Br  0.18302225  0.18025432  0.28201835     0.01000
Br722      Br  0.26271296  0.09791358  0.25765728    -0.02800
Br723      Br  0.19129475  0.08487923  0.23946093    -0.03700
Br724      Br  0.23257636  0.05022163  0.34370336     0.00300
C725        C  0.84860900  0.99871950  0.35293269     0.01700
C726        C  0.84414769  0.99249963  0.37651745     0.04500
C727        C  0.86274337  0.99169392  0.39290337    -0.11500
C728        C  0.88584335  0.99729384  0.38581183     0.23800
C729        C  0.89041517  0.00257742  0.36202755    -0.12100
C730        C  0.87189019  0.00307722  0.34559895     0.05200
C731        C  0.90534332  0.99788729  0.40330948     0.27600
C732        C  0.90960438  0.01843041  0.41649928    -0.12800
C733        C  0.92845546  0.01930443  0.43258351     0.05700
C734        C  0.94311161  0.99957642  0.43565952    -0.08800
C735        C  0.93868578  0.97897748  0.42260320     0.06600
C736        C  0.91989622  0.97814782  0.40645379    -0.13100
Br737      Br  0.92221192  0.00875282  0.35196191    -0.05200
Br738      Br  0.81254812  0.98491151  0.38624040     0.00400
Br739      Br  0.93400435  0.04737497  0.45075640     0.00900
Br740      Br  0.91369609  0.94983364  0.38890274    -0.03500
Br741      Br  0.87856933  0.00850914  0.31279129     0.01000
Br742      Br  0.85677734  0.98244684  0.42496960    -0.02800
Br743      Br  0.88930792  0.04524321  0.41266283    -0.03700
Br744      Br  0.95790269  0.95159675  0.42758848     0.00300
C745        C  0.06632468  0.99959313  0.43676562     0.01700
C746        C  0.07252728  0.97779667  0.42685692     0.04500
C747        C  0.09141832  0.97631743  0.41097762    -0.11500
C748        C  0.10375187  0.99673821  0.40444311     0.23800
C749        C  0.09745239  0.01859336  0.41421937    -0.12100
C750        C  0.07896258  0.01996941  0.43061134     0.05200
C751        C  0.12291357  0.99538958  0.38678350     0.27600
C752        C  0.14646074  0.99276880  0.39404359    -0.12800
C753        C  0.16466423  0.99295323  0.37725730     0.05700
C754        C  0.15931540  0.99572679  0.35320846    -0.08800
C755        C  0.13570393  0.99730278  0.34589095     0.06600
C756        C  0.11753037  0.99707136  0.36265028    -0.13100
Br757      Br  0.11425340  0.04657239  0.40511029    -0.05200
Br758      Br  0.05531391  0.94992738  0.43549658     0.00400
Br759      Br  0.19694782  0.98979378  0.38713039     0.00900
Br760      Br  0.08517299  0.99887519  0.35265391    -0.03500
Br761      Br  0.07112384  0.04959269  0.44501179     0.01000
Br762      Br  0.10075850  0.94631363  0.39841658    -0.02800
Br763      Br  0.15360845  0.98876662  0.42696298    -0.03700
Br764      Br  0.12830972  0.99942063  0.31282331     0.00300
C765        C  0.85851468  0.00250521  0.64939793     0.01700
C766        C  0.88282836  0.00065083  0.65357598     0.04500
C767        C  0.89853567  0.00004953  0.63454821    -0.11500
C768        C  0.88992313  0.00121632  0.61133664     0.23800
C769        C  0.86559691  0.00303640  0.60714038    -0.12100
C770        C  0.84987845  0.00374255  0.62620884     0.05200
C771        C  0.90670558  0.00044781  0.59151699     0.27600
C772        C  0.91749852  0.02128288  0.58375040    -0.12800
C773        C  0.93547932  0.02030303  0.56685990     0.05700
C774        C  0.94275652  0.99844523  0.55780747    -0.08800
C775        C  0.93153591  0.97764362  0.56519527     0.06600
C776        C  0.91325694  0.97870243  0.58177361    -0.13100
Br777      Br  0.85394750  0.00419955  0.57530466    -0.05200
Br778      Br  0.89454034  0.99886486  0.68538465     0.00400
Br779      Br  0.95039917  0.04885019  0.55631308     0.00900
Br780      Br  0.89702068  0.95048311  0.59115036    -0.03500
Br781      Br  0.81648804  0.00593160  0.62071698     0.01000
Br782      Br  0.93190274  0.99738900  0.64014782    -0.02800
Br783      Br  0.90755782  0.05109134  0.59637292    -0.03700
Br784      Br  0.94137162  0.94775141  0.55269550     0.00300
C785        C  0.14873368  0.00229181  0.65330957     0.01700
C786        C  0.15725318  0.00083385  0.63007430     0.04500
C787        C  0.14144062  0.00113036  0.61101506    -0.11500
C788        C  0.11705495  0.00246211  0.61518823     0.23800
C789        C  0.10857163  0.00404014  0.63843588    -0.12100
C790        C  0.12440334  0.00420599  0.65745767     0.05200
C791        C  0.10018998  0.00186048  0.59524726     0.27600
C792        C  0.09183153  0.02294434  0.58542520    -0.12800
C793        C  0.07479636  0.02233937  0.56745178     0.05700
C794        C  0.06598608  0.00064351  0.55933109    -0.08800
C795        C  0.07474449  0.97956410  0.56881719     0.06600
C796        C  0.09181837  0.98016899  0.58673094    -0.13100
Br797      Br  0.07517767  0.00566641  0.64410848    -0.05200
Br798      Br  0.19063125  0.99861933  0.62448315     0.00400
Br799      Br  0.06338979  0.05117255  0.55395881     0.00900
Br800      Br  0.10361648  0.95132558  0.59989975    -0.03500
Br801      Br  0.11282668  0.00680358  0.68925399     0.01000
Br802      Br  0.15305853  0.99977736  0.57917668    -0.02800
Br803      Br  0.10365143  0.05258158  0.59686644    -0.03700
Br804      Br  0.06330132  0.94989499  0.55712914     0.00300
C805        C  0.76589488  0.27017661  0.33974094     0.01700
C806        C  0.78684777  0.28186744  0.34608388     0.04500
C807        C  0.79019416  0.28958343  0.36938662    -0.11500
C808        C  0.77295125  0.28503540  0.38659860     0.23800
C809        C  0.75229714  0.27282098  0.38042026    -0.12100
C810        C  0.74876613  0.26539036  0.35703697     0.05200
C811        C  0.77686847  0.29261654  0.41131560     0.27600
C812        C  0.78890756  0.27777988  0.42702167    -0.12800
C813        C  0.79382262  0.28537727  0.45007927     0.05700
C814        C  0.78630123  0.30768514  0.45770369    -0.08800
C815        C  0.77390313  0.32238599  0.44206645     0.06600
C816        C  0.76930728  0.31490774  0.41888747    -0.13100
Br817      Br  0.72883318  0.26650425  0.40407797    -0.05200
Br818      Br  0.81074634  0.28793100  0.32273440     0.00400
Br819      Br  0.81250609  0.26595878  0.47055472     0.00900
Br820      Br  0.75348024  0.33547126  0.39712553    -0.03500
Br821      Br  0.72100949  0.24761923  0.34891782     0.01000
Br822      Br  0.81812369  0.30696931  0.37772360    -0.02800
Br823      Br  0.79944711  0.24736975  0.41651084    -0.03700
Br824      Br  0.76376860  0.35305349  0.45227548     0.00300
C825        C  0.73797286  0.33816421  0.23388113     0.01700
C826        C  0.72693603  0.34495917  0.21273755     0.04500
C827        C  0.72226289  0.36878915  0.20840123    -0.11500
C828        C  0.72901883  0.38600238  0.22492624     0.23800
C829        C  0.74099035  0.37933775  0.24556737    -0.12100
C830        C  0.74521841  0.35543465  0.25018815     0.05200
C831        C  0.72247135  0.41089674  0.22084398     0.27600
C832        C  0.73542127  0.42471936  0.20487457    -0.12800
C833        C  0.72711728  0.44703477  0.19831908     0.05700
C834        C  0.70603185  0.45571480  0.20798743    -0.08800
C835        C  0.69395918  0.44255980  0.22513904     0.06600
C836        C  0.70205989  0.42011396  0.23144403    -0.13100
Br837      Br  0.75157352  0.40304899  0.26739168    -0.05200
Br838      Br  0.71700771  0.32156629  0.19019076     0.00400
Br839      Br  0.74404276  0.46533117  0.17534970     0.00900
Br840      Br  0.68470282  0.40155503  0.25390821    -0.03500
Br841      Br  0.76151815  0.34641394  0.27856609     0.01000
Br842      Br  0.70592908  0.37788871  0.18006199    -0.02800
Br843      Br  0.76412724  0.41264999  0.19150766    -0.03700
Br844      Br  0.66620223  0.45532356  0.23980088     0.00300
C845        C  0.73175862  0.22867456  0.16540052     0.01700
C846        C  0.70805914  0.22804110  0.15800908     0.04500
C847        C  0.70245693  0.22215228  0.13460607    -0.11500
C848        C  0.72045526  0.21682231  0.11844659     0.23800
C849        C  0.74413904  0.21773966  0.12568016    -0.12100
C850        C  0.74980241  0.22368613  0.14908969     0.05200
C851        C  0.71429976  0.21024762  0.09386806     0.27600
C852        C  0.71218505  0.18645764  0.08752866    -0.12800
C853        C  0.70555066  0.18020115  0.06446268     0.05700
C854        C  0.69972055  0.19780596  0.04784723    -0.08800
C855        C  0.70141835  0.22168186  0.05454492     0.06600
C856        C  0.70938196  0.22780904  0.07720353    -0.13100
Br857      Br  0.76874988  0.21084554  0.10339341    -0.05200
Br858      Br  0.68319931  0.23633728  0.17959024     0.00400
Br859      Br  0.70522661  0.14740532  0.05584464     0.00900
Br860      Br  0.71314715  0.26037419  0.08578117    -0.03500
Br861      Br  0.78226936  0.22405665  0.15897479     0.01000
Br862      Br  0.67006374  0.22151336  0.12447300    -0.02800
Br863      Br  0.71780389  0.16248456  0.11083873    -0.03700
Br864      Br  0.69096930  0.24622933  0.03364738     0.00300
C865        C  0.76551446  0.16220813  0.27128529     0.01700
C866        C  0.77306974  0.15572693  0.29410483     0.04500
C867        C  0.77821918  0.13210136  0.29925815    -0.11500
C868        C  0.77516724  0.11461047  0.28196161     0.23800
C869        C  0.76682951  0.12085559  0.25948587    -0.12100
C870        C  0.76227606  0.14455148  0.25403154     0.05200
C871        C  0.78126407  0.08974231  0.28730343     0.27600
C872        C  0.80297885  0.08046396  0.27982535    -0.12800
C873        C  0.80928358  0.05735231  0.28582227     0.05700
C874        C  0.79441726  0.04367757  0.30017738    -0.08800
C875        C  0.77225321  0.05257438  0.30681905     0.06600
C876        C  0.76557663  0.07544936  0.30012786    -0.13100
Br877      Br  0.76186437  0.09674723  0.23611889    -0.05200
Br878      Br  0.77522199  0.17886647  0.31891980     0.00400
Br879      Br  0.83801741  0.04407506  0.27378602     0.00900
Br880      Br  0.73500514  0.08739806  0.30854190    -0.03500
Br881      Br  0.75288190  0.15263580  0.22240627     0.01000
Br882      Br  0.78980080  0.12361971  0.33002735    -0.02800
Br883      Br  0.82433544  0.09965038  0.26177377    -0.03700
Br884      Br  0.75129708  0.03366426  0.32554765     0.00300
C885        C  0.54446158  0.20776058  0.30692695     0.01700
C886        C  0.55620621  0.22544409  0.31977061     0.04500
C887        C  0.57837598  0.23374962  0.31222175    -0.11500
C888        C  0.58904200  0.22422251  0.29192734     0.23800
C889        C  0.57691714  0.20707376  0.27872038    -0.12100
C890        C  0.55483986  0.19873674  0.28629938     0.05200
C891        C  0.61393632  0.23013278  0.28586987     0.27600
C892        C  0.61950951  0.24992737  0.27202470    -0.12800
C893        C  0.64314337  0.25466586  0.26583296     0.05700
C894        C  0.66125250  0.23933947  0.27307832    -0.08800
C895        C  0.65559292  0.21964347  0.28699218     0.06600
C896        C  0.63212433  0.21517507  0.29347970    -0.13100
Br897      Br  0.59099844  0.19455011  0.25052006    -0.05200
Br898      Br  0.54228309  0.23750992  0.34823227     0.00400
Br899      Br  0.65057675  0.28154556  0.24663090     0.00900
Br900      Br  0.62477996  0.18835990  0.31285318    -0.03500
Br901      Br  0.53929271  0.17397633  0.26911104     0.01000
Br902      Br  0.59451684  0.25771433  0.32996137    -0.02800
Br903      Br  0.59462323  0.27010844  0.26114442    -0.03700
Br904      Br  0.68021157  0.19903363  0.29788967     0.00300
C905        C  0.83978470  0.26601574  0.23453541     0.01700
C906        C  0.85779658  0.24926215  0.23816869     0.04500
C907        C  0.88163128  0.25540990  0.23463082    -0.11500
C908        C  0.88769841  0.27800824  0.22658599     0.23800
C909        C  0.86981184  0.29460772  0.22258342    -0.12100
C910        C  0.84608828  0.28888784  0.22703489     0.05200
C911        C  0.91279712  0.28455824  0.22220380     0.27600
C912        C  0.92533961  0.29802089  0.23889972    -0.12800
C913        C  0.94783057  0.30699946  0.23340847     0.05700
C914        C  0.95811056  0.30218558  0.21134649    -0.08800
C915        C  0.94635651  0.28717565  0.19544612     0.06600
C916        C  0.92365358  0.27869360  0.20067775    -0.13100
Br917      Br  0.87797753  0.32536481  0.21088221    -0.05200
Br918      Br  0.85002904  0.21745408  0.24685307     0.00400
Br919      Br  0.96408022  0.32682704  0.25562759     0.00900
Br920      Br  0.90696801  0.25986973  0.17790747    -0.03500
Br921      Br  0.82262757  0.31323791  0.22435670     0.01000
Br922      Br  0.90618414  0.23299222  0.24097672    -0.02800
Br923      Br  0.91126258  0.30470202  0.26902441    -0.03700
Br924      Br  0.96152548  0.27819780  0.16645938     0.00300
C925        C  0.23199779  0.72799356  0.33564161     0.01700
C926        C  0.21410900  0.71151207  0.34019136     0.04500
C927        C  0.20875944  0.70520997  0.36351291    -0.11500
C928        C  0.22153610  0.71514377  0.38231804     0.23800
C929        C  0.23953525  0.73154331  0.37773260    -0.12100
C930        C  0.24465402  0.73808152  0.35440894     0.05200
C931        C  0.21606418  0.70831372  0.40691133     0.27600
C932        C  0.20018782  0.72176853  0.42031445    -0.12800
C933        C  0.19482850  0.71518425  0.44355745     0.05700
C934        C  0.20510607  0.69496770  0.45337648    -0.08800
C935        C  0.22088201  0.68142605  0.43991800     0.06600
C936        C  0.22642758  0.68814346  0.41675121    -0.13100
Br937      Br  0.25721562  0.74484234  0.40347407    -0.05200
Br938      Br  0.19733821  0.69724403  0.31433513     0.00400
Br939      Br  0.17244584  0.73312114  0.46159235     0.00900
Br940      Br  0.24756506  0.66933236  0.39809774    -0.03500
Br941      Br  0.26874479  0.76107695  0.34806918     0.01000
Br942      Br  0.18395806  0.68296757  0.36980101    -0.02800
Br943      Br  0.18496152  0.74855607  0.40633870    -0.03700
Br944      Br  0.23436523  0.65331960  0.45306960     0.00300
C945        C  0.45693097  0.78190588  0.30567655     0.01700
C946        C  0.45008353  0.78500161  0.28199278     0.04500
C947        C  0.42765375  0.77772192  0.27453666    -0.11500
C948        C  0.41151130  0.76865524  0.29095363     0.23800
C949        C  0.41839854  0.76516110  0.31447509    -0.12100
C950        C  0.44123908  0.77127240  0.32171093     0.05200
C951        C  0.38670707  0.76486734  0.28394656     0.27600
C952        C  0.37099409  0.78390398  0.28440132    -0.12800
C953        C  0.34741547  0.78068374  0.27773915     0.05700
C954        C  0.33938810  0.75827687  0.27055861    -0.08800
C955        C  0.35526899  0.73922247  0.27002998     0.06600
C956        C  0.37886103  0.74253926  0.27681737    -0.13100
Br957      Br  0.39613410  0.75286781  0.33692048    -0.05200
Br958      Br  0.47036391  0.80112308  0.26013371     0.00400
Br959      Br  0.32608434  0.80699744  0.27964380     0.00900
Br960      Br  0.40063175  0.71663111  0.27633573    -0.03500
Br961      Br  0.45097005  0.76506262  0.35364304     0.01000
Br962      Br  0.41859230  0.78076310  0.24195534    -0.02800
Br963      Br  0.38188269  0.81441003  0.29458244    -0.03700
Br964      Br  0.34524479  0.70883165  0.25881411     0.00300
C965        C  0.26672398  0.77176016  0.16102170     0.01700
C966        C  0.27887403  0.79269158  0.15435742     0.04500
C967        C  0.28269538  0.79791263  0.13040842    -0.11500
C968        C  0.27393793  0.78303815  0.11276004     0.23800
C969        C  0.26181483  0.76251155  0.11887741    -0.12100
C970        C  0.25849045  0.75654024  0.14270961     0.05200
C971        C  0.27848650  0.78849215  0.08762798     0.27600
C972        C  0.26314847  0.80327181  0.07500852    -0.12800
C973        C  0.26864175  0.80986709  0.05175234     0.05700
C974        C  0.28925112  0.80133592  0.04101034    -0.08800
C975        C  0.30368081  0.78532000  0.05314719     0.06600
C976        C  0.29859625  0.77929561  0.07655087    -0.13100
Br977      Br  0.25014197  0.74234988  0.09405708    -0.05200
Br978      Br  0.29053401  0.81522394  0.17702814     0.00400
Br979      Br  0.24865976  0.83140946  0.03499402     0.00900
Br980      Br  0.31989722  0.75953548  0.09396715    -0.03500
Br981      Br  0.24341837  0.72661930  0.14881736     0.01000
Br982      Br  0.30051048  0.82541128  0.12134020    -0.02800
Br983      Br  0.23524947  0.81521129  0.09007246    -0.03700
Br984      Br  0.33079068  0.77204400  0.03773822     0.00300
C985        C  0.16173749  0.73820197  0.22915847     0.01700
C986        C  0.15522012  0.71761164  0.21648473     0.04500
C987        C  0.13144448  0.71304884  0.21130954    -0.11500
C988        C  0.11375962  0.72815496  0.21953982     0.23800
C989        C  0.11990636  0.74852709  0.23211826    -0.12100
C990        C  0.14376288  0.75393934  0.23637502     0.05200
C991        C  0.08871247  0.72245383  0.21460251     0.27600
C992        C  0.07735638  0.73247314  0.19499328    -0.12800
C993        C  0.05467066  0.72493065  0.18860445     0.05700
C994        C  0.04323825  0.70741584  0.20182265    -0.08800
C995        C  0.05417453  0.69801723  0.22192938     0.06600
C996        C  0.07689793  0.70551000  0.22831566    -0.13100
Br997      Br  0.09535191  0.76891946  0.24354072    -0.05200
Br998      Br  0.17807918  0.69437660  0.20678796     0.00400
Br999      Br  0.03949381  0.73788734  0.16119179     0.00900
Br1000     Br  0.09234321  0.69187236  0.25522923    -0.03500
Br1001     Br  0.15123420  0.78380722  0.25068958     0.01000
Br1002     Br  0.12280600  0.68587179  0.19277324    -0.02800
Br1003     Br  0.09336882  0.75572624  0.17625921    -0.03700
Br1004     Br  0.03830566  0.67419393  0.24006782     0.00300
C1005       C  0.26540763  0.66258145  0.22822808     0.01700
C1006       C  0.25011711  0.64444026  0.23528338     0.04500
C1007       C  0.25509127  0.62100282  0.22911061    -0.11500
C1008       C  0.27589149  0.61556879  0.21677222     0.23800
C1009       C  0.29131128  0.63375625  0.21000762    -0.12100
C1010       C  0.28581722  0.65724168  0.21530440     0.05200
C1011       C  0.28182720  0.59076464  0.21113662     0.27600
C1012       C  0.29568798  0.57753538  0.22681584    -0.12800
C1013       C  0.30281685  0.55464438  0.22073518     0.05700
C1014       C  0.29615892  0.54488094  0.19891083    -0.08800
C1015       C  0.28172427  0.55789671  0.18352901     0.06600
C1016       C  0.27454051  0.58075261  0.18964911    -0.13100
Br1017     Br  0.32016550  0.62639635  0.19381593    -0.05200
Br1018     Br  0.22269651  0.65174984  0.25381425     0.00400
Br1019     Br  0.32284279  0.53715149  0.24169464     0.00900
Br1020     Br  0.25534319  0.59876196  0.16832840    -0.03500
Br1021     Br  0.30614182  0.68226559  0.20478957     0.01000
Br1022     Br  0.23348616  0.59627473  0.23741412    -0.02800
Br1023     Br  0.30567575  0.59129074  0.25620242    -0.03700
Br1024     Br  0.27227148  0.54453027  0.15378475     0.00300
C1025       C  0.24218314  0.83750167  0.27083017     0.01700
C1026       C  0.24864607  0.85539157  0.25475471     0.04500
C1027       C  0.24628577  0.87917244  0.26104291    -0.11500
C1028       C  0.23660554  0.88534023  0.28294386     0.23800
C1029       C  0.23093088  0.86772226  0.29933393    -0.12100
C1030       C  0.23407154  0.84390363  0.29351554     0.05200
C1031       C  0.23031288  0.91014237  0.28790934     0.27600
C1032       C  0.24531733  0.92465518  0.30130471    -0.12800
C1033       C  0.23823242  0.94760019  0.30729435     0.05700
C1034       C  0.21602228  0.95591852  0.30012553    -0.08800
C1035       C  0.20149087  0.94169014  0.28593267     0.06600
C1036       C  0.20862046  0.91889418  0.27982100    -0.13100
Br1037     Br  0.21844953  0.87640681  0.32970430    -0.05200
Br1038     Br  0.25910738  0.84790922  0.22334030     0.00400
Br1039     Br  0.25843270  0.96728359  0.32611492     0.00900
Br1040     Br  0.18821486  0.89918931  0.26113777    -0.03500
Br1041     Br  0.22816027  0.82038551  0.31728252     0.01000
Br1042     Br  0.25587388  0.90357327  0.23953680    -0.02800
Br1043     Br  0.27506313  0.91263115  0.31215982    -0.03700
Br1044     Br  0.17147894  0.95334465  0.27528266     0.00300
C1045       C  0.76371007  0.72760665  0.33652182     0.01700
C1046       C  0.74658828  0.73337885  0.35357273     0.04500
C1047       C  0.74949828  0.72623600  0.37713814    -0.11500
C1048       C  0.76972246  0.71368802  0.38385348     0.23800
C1049       C  0.78693586  0.70815094  0.36690627    -0.12100
C1050       C  0.78399304  0.71511499  0.34333497     0.05200
C1051       C  0.77383412  0.70733345  0.40889202     0.27600
C1052       C  0.78625080  0.72294183  0.42359079    -0.12800
C1053       C  0.79378029  0.71564284  0.44599444     0.05700
C1054       C  0.78788423  0.69309895  0.45433331    -0.08800
C1055       C  0.77448330  0.67785652  0.44004827     0.06600
C1056       C  0.76758353  0.68491768  0.41730930    -0.13100
Br1057     Br  0.81462166  0.69091666  0.37614913    -0.05200
Br1058     Br  0.71993172  0.75246873  0.34500548     0.00400
Br1059     Br  0.81397027  0.73578298  0.46432454     0.00900
Br1060     Br  0.75008559  0.66379055  0.39736614    -0.03500
Br1061     Br  0.80757222  0.70693019  0.32033295     0.01000
Br1062     Br  0.72594806  0.73369943  0.40035132    -0.02800
Br1063     Br  0.79342385  0.75417654  0.41264637    -0.03700
Br1064     Br  0.76617390  0.64707902  0.45144656     0.00300
C1065       C  0.73136911  0.66298708  0.23034906     0.01700
C1066       C  0.71655279  0.65727542  0.21130089     0.04500
C1067       C  0.71156282  0.63364526  0.20610091    -0.11500
C1068       C  0.72146858  0.61565712  0.21989992     0.23800
C1069       C  0.73646178  0.62135674  0.23880874    -0.12100
C1070       C  0.74129157  0.64499996  0.24413241     0.05200
C1071       C  0.71555503  0.59076000  0.21506325     0.27600
C1072       C  0.69807723  0.57944156  0.22851671    -0.12800
C1073       C  0.69225908  0.55590918  0.22388409     0.05700
C1074       C  0.70382207  0.54369115  0.20575033    -0.08800
C1075       C  0.72155408  0.55482486  0.19255275     0.06600
C1076       C  0.72741983  0.57836135  0.19718233    -0.13100
Br1077     Br  0.75037241  0.59661478  0.25729383    -0.05200
Br1078     Br  0.70230473  0.68195065  0.19297705     0.00400
Br1079     Br  0.66797637  0.54047387  0.24184864     0.00900
Br1080     Br  0.75125013  0.59383424  0.17868732    -0.03500
Br1081     Br  0.76189181  0.65273432  0.26997397     0.01000
Br1082     Br  0.69090198  0.62586837  0.18029941    -0.02800
Br1083     Br  0.68161960  0.59647051  0.25278939    -0.03700
Br1084     Br  0.73721740  0.53789688  0.16767678     0.00300
C1085       C  0.73304842  0.77482795  0.16201341     0.01700
C1086       C  0.75048180  0.77258685  0.14438569     0.04500
C1087       C  0.74569529  0.77963802  0.12111204    -0.11500
C1088       C  0.72352961  0.78889345  0.11522347     0.23800
C1089       C  0.70621055  0.79139318  0.13275272    -0.12100
C1090       C  0.71085718  0.78432435  0.15603129     0.05200
C1091       C  0.71801346  0.79508957  0.09039976     0.27600
C1092       C  0.72443981  0.81717218  0.08126450    -0.12800
C1093       C  0.71838471  0.82320400  0.05799583     0.05700
C1094       C  0.70581891  0.80719708  0.04376510    -0.08800
C1095       C  0.69956997  0.78504165  0.05289729     0.06600
C1096       C  0.70578181  0.77896467  0.07608257    -0.13100
Br1097     Br  0.67593685  0.80435017  0.12464354    -0.05200
Br1098     Br  0.78137106  0.76076318  0.15200001     0.00400
Br1099     Br  0.72727137  0.85343284  0.04556813     0.00900
Br1100     Br  0.69717964  0.74865237  0.08854102    -0.03500
Br1101     Br  0.68608224  0.78649819  0.17921294     0.01000
Br1102     Br  0.76949078  0.77667923  0.09709973    -0.02800
Br1103     Br  0.74119013  0.83924008  0.10085186    -0.03700
Br1104     Br  0.68134056  0.76345419  0.03412652     0.00300
C1105       C  0.54504630  0.78533224  0.30310841     0.01700
C1106       C  0.55299537  0.79628121  0.28236689     0.04500
C1107       C  0.57571984  0.79171211  0.27389020    -0.11500
C1108       C  0.59065644  0.77646024  0.28636312     0.23800
C1109       C  0.58261096  0.76529919  0.30697604    -0.12100
C1110       C  0.55976599  0.76967152  0.31529009     0.05200
C1111       C  0.61528921  0.77323449  0.27865658     0.27600
C1112       C  0.62183947  0.75291272  0.26619533    -0.12800
C1113       C  0.64553818  0.74921988  0.26026008     0.05700
C1114       C  0.66264604  0.76617539  0.26626043    -0.08800
C1115       C  0.65585778  0.78703241  0.27780852     0.06600
C1116       C  0.63228679  0.79030939  0.28440830    -0.13100
Br1117     Br  0.60336157  0.74496858  0.32440352    -0.05200
Br1118     Br  0.53328258  0.81871131  0.26642858     0.00400
Br1119     Br  0.65437718  0.72123611  0.24325078     0.00900
Br1120     Br  0.62332308  0.81776476  0.30220439    -0.03500
Br1121     Br  0.54885153  0.75498189  0.34383624     0.01000
Br1122     Br  0.58682023  0.80708861  0.24576153    -0.02800
Br1123     Br  0.59825970  0.73012600  0.25746909    -0.03700
Br1124     Br  0.67889136  0.81072299  0.28569215     0.00300
C1125       C  0.77220258  0.83615507  0.26878674     0.01700
C1126       C  0.77555096  0.85209317  0.25009705     0.04500
C1127       C  0.77999611  0.87591804  0.25483357    -0.11500
C1128       C  0.78244456  0.88367266  0.27825446     0.23800
C1129       C  0.78016516  0.86753123  0.29692579    -0.12100
C1130       C  0.77433833  0.84397424  0.29223863     0.05200
C1131       C  0.78722347  0.90879096  0.28339682     0.27600
C1132       C  0.81001458  0.91800737  0.28040998    -0.12800
C1133       C  0.81474862  0.94144757  0.28651384     0.05700
C1134       C  0.79725386  0.95523882  0.29743672    -0.08800
C1135       C  0.77434096  0.94610100  0.30010822     0.06600
C1136       C  0.76915018  0.92323994  0.29220895    -0.13100
Br1137     Br  0.78525064  0.87773709  0.32893341    -0.05200
Br1138     Br  0.77511056  0.84110636  0.21793968     0.00400
Br1139     Br  0.84526668  0.95473081  0.27975496     0.00900
Br1140     Br  0.73736868  0.91142856  0.29371573    -0.03500
Br1141     Br  0.76776174  0.82287594  0.31796251     0.01000
Br1142     Br  0.78234087  0.89805050  0.22927201    -0.02800
Br1143     Br  0.83503977  0.89819410  0.26901725    -0.03700
Br1144     Br  0.75055387  0.96396843  0.31628675     0.00300
C1145       C  0.83651535  0.73467865  0.22598682     0.01700
C1146       C  0.85347558  0.75271547  0.22811039     0.04500
C1147       C  0.87729009  0.74803089  0.22333624    -0.11500
C1148       C  0.88407910  0.72573045  0.21514374     0.23800
C1149       C  0.86704496  0.70803644  0.21194262    -0.12100
C1150       C  0.84340796  0.71230548  0.21776465     0.05200
C1151       C  0.90912579  0.72059583  0.21001031     0.27600
C1152       C  0.91894617  0.72703643  0.18818584    -0.12800
C1153       C  0.94197263  0.72012478  0.18246203     0.05700
C1154       C  0.95509863  0.70643753  0.19838171    -0.08800
C1155       C  0.94548966  0.70049587  0.22043990     0.06600
C1156       C  0.92266423  0.70788225  0.22638206    -0.13100
Br1157     Br  0.87628270  0.67779520  0.19971215    -0.05200
Br1158     Br  0.84403102  0.78428810  0.23603580     0.00400
Br1159     Br  0.95554430  0.72917700  0.15269223     0.00900
Br1160     Br  0.90960384  0.70020623  0.25674904    -0.03500
Br1161     Br  0.82092680  0.68692109  0.21558334     0.01000
Br1162     Br  0.90077575  0.77196696  0.22841167    -0.02800
Br1163     Br  0.90054612  0.74470098  0.16588374    -0.03700
Br1164     Br  0.96301904  0.68099533  0.24188321     0.00300
C1165       C  0.26757129  0.33989530  0.76732577     0.01700
C1166       C  0.27632026  0.34526128  0.79005963     0.04500
C1167       C  0.28237699  0.36851233  0.79599769    -0.11500
C1168       C  0.27921087  0.38674571  0.77961231     0.23800
C1169       C  0.26968655  0.38167214  0.75728611    -0.12100
C1170       C  0.26412499  0.35834231  0.75101600     0.05200
C1171       C  0.28669991  0.41110290  0.78567054     0.27600
C1172       C  0.27178485  0.42593245  0.79875675    -0.12800
C1173       C  0.27945253  0.44852847  0.80545532     0.05700
C1174       C  0.30212448  0.45641996  0.79915001    -0.08800
C1175       C  0.31690883  0.44164842  0.78578018     0.06600
C1176       C  0.30923573  0.41907519  0.77912240    -0.13100
Br1177     Br  0.26440961  0.40688570  0.73529776    -0.05200
Br1178     Br  0.27891327  0.32117003  0.81384049     0.00400
Br1179     Br  0.25938282  0.46814511  0.82443461     0.00900
Br1180     Br  0.32990027  0.39859451  0.76172820    -0.03500
Br1181     Br  0.25303569  0.35183381  0.71954797     0.01000
Br1182     Br  0.29517761  0.37555194  0.82668356    -0.02800
Br1183     Br  0.24118671  0.41481332  0.80825065    -0.03700
Br1184     Br  0.34780221  0.45230493  0.77662868     0.00300
C1185       C  0.33274507  0.23242655  0.72607864     0.01700
C1186       C  0.33867982  0.20981180  0.71753403     0.04500
C1187       C  0.36225013  0.20428078  0.71221958    -0.11500
C1188       C  0.38026495  0.22078351  0.71631749     0.23800
C1189       C  0.37459737  0.24303052  0.72542349    -0.12100
C1190       C  0.35096835  0.24909173  0.72974573     0.05200
C1191       C  0.40514413  0.21474906  0.71073604     0.27600
C1192       C  0.41851759  0.20115241  0.72653742    -0.12800
C1193       C  0.44144155  0.19400135  0.72046162     0.05700
C1194       C  0.45120063  0.20053669  0.69861338    -0.08800
C1195       C  0.43809725  0.21479453  0.68315286     0.06600
C1196       C  0.41515716  0.22189035  0.68920096    -0.13100
Br1197     Br  0.39947451  0.26511759  0.73219457    -0.05200
Br1198     Br  0.31510287  0.18553289  0.71442473     0.00400
Br1199     Br  0.45898089  0.17412889  0.74150857     0.00900
Br1200     Br  0.39708034  0.24084222  0.66770586    -0.03500
Br1201     Br  0.34397617  0.28084575  0.73947930     0.01000
Br1202     Br  0.37008102  0.17391277  0.69934021    -0.02800
Br1203     Br  0.40507228  0.19183025  0.75625474    -0.03700
Br1204     Br  0.45152006  0.22429349  0.65347408     0.00300
C1205       C  0.19664042  0.04508385  0.71257997     0.01700
C1206       C  0.18330119  0.05664001  0.72999318     0.04500
C1207       C  0.18850765  0.08007921  0.73615637    -0.11500
C1208       C  0.20716457  0.09202035  0.72501231     0.23800
C1209       C  0.22099128  0.08017395  0.70819766    -0.12100
C1210       C  0.21572008  0.05681282  0.70198088     0.05200
C1211       C  0.21187596  0.11724794  0.73022002     0.27600
C1212       C  0.20065592  0.13488125  0.71694319    -0.12800
C1213       C  0.20639707  0.15868260  0.72058383     0.05700
C1214       C  0.22352353  0.16498377  0.73737750    -0.08800
C1215       C  0.23427350  0.14742142  0.75111712     0.06600
C1216       C  0.22836216  0.12362341  0.74763141    -0.13100
Br1217     Br  0.24659048  0.09639601  0.69298115    -0.05200
Br1218     Br  0.15744658  0.04048547  0.74479266     0.00400
Br1219     Br  0.19038099  0.18280467  0.70302963     0.00900
Br1220     Br  0.24287987  0.09961790  0.76654635    -0.03500
Br1221     Br  0.23396025  0.04110430  0.67810864     0.01000
Br1222     Br  0.16959772  0.09624085  0.75916334    -0.02800
Br1223     Br  0.17748873  0.12630941  0.69367098    -0.03700
Br1224     Br  0.25775593  0.15595485  0.77409901     0.00300
C1225       C  0.04090655  0.29530849  0.80204395     0.01700
C1226       C  0.04806350  0.29921736  0.77857491     0.04500
C1227       C  0.07104551  0.29339848  0.77143491    -0.11500
C1228       C  0.08709528  0.28405415  0.78778926     0.23800
C1229       C  0.07980923  0.27952826  0.81102315    -0.12100
C1230       C  0.05669766  0.28481032  0.81804767     0.05200
C1231       C  0.11185779  0.27952870  0.78086447     0.27600
C1232       C  0.11836687  0.25748554  0.77177209    -0.12800
C1233       C  0.14207487  0.25278149  0.76646413     0.05700
C1234       C  0.15940819  0.27013718  0.77030269    -0.08800
C1235       C  0.15277263  0.29238182  0.77900941     0.06600
C1236       C  0.12904406  0.29705308  0.78421399    -0.13100
Br1237     Br  0.10186965  0.26672844  0.83337273    -0.05200
Br1238     Br  0.02699697  0.31382675  0.75646847     0.00400
Br1239     Br  0.15056054  0.22288751  0.75293033     0.00900
Br1240     Br  0.11996025  0.32740634  0.79620377    -0.03500
Br1241     Br  0.04660391  0.27740135  0.84959758     0.01000
Br1242     Br  0.08092821  0.29885446  0.73943483    -0.02800
Br1243     Br  0.09464058  0.23381826  0.76659393    -0.03700
Br1244     Br  0.17626959  0.31617855  0.78495190     0.00300
C1245       C  0.22571944  0.27206844  0.66194119     0.01700
C1246       C  0.24333726  0.27304991  0.64447457     0.04500
C1247       C  0.23734570  0.27817287  0.62097282    -0.11500
C1248       C  0.21387840  0.28329899  0.61490687     0.23800
C1249       C  0.19627343  0.28251451  0.63234569    -0.12100
C1250       C  0.20208972  0.27648488  0.65568513     0.05200
C1251       C  0.20790082  0.28985441  0.59024365     0.27600
C1252       C  0.21236928  0.31280531  0.58215456    -0.12800
C1253       C  0.20787488  0.31876017  0.55853542     0.05700
C1254       C  0.19780890  0.30211840  0.54308401    -0.08800
C1255       C  0.19285296  0.27929301  0.55134605     0.06600
C1256       C  0.19820448  0.27309219  0.57474741    -0.13100
Br1257     Br  0.16419735  0.28990377  0.62419783    -0.05200
Br1258     Br  0.27591652  0.26876813  0.65289021     0.00400
Br1259     Br  0.21603642  0.34963617  0.54719180     0.00900
Br1260     Br  0.19189457  0.24171790  0.58580424    -0.03500
Br1261     Br  0.17742939  0.27313620  0.67879099     0.01000
Br1262     Br  0.26125560  0.27807160  0.59689068    -0.02800
Br1263     Br  0.22393808  0.33628784  0.60375255    -0.03700
Br1264     Br  0.17761715  0.25681520  0.53104203     0.00300
C1265       C  0.26861820  0.23413145  0.83577688     0.01700
C1266       C  0.28884568  0.22036255  0.83965287     0.04500
C1267       C  0.29531179  0.21402499  0.86270429    -0.11500
C1268       C  0.28208552  0.22212770  0.88204396     0.23800
C1269       C  0.26224709  0.23642157  0.87819068    -0.12100
C1270       C  0.25533606  0.24215356  0.85510065     0.05200
C1271       C  0.28833344  0.21482594  0.90638510     0.27600
C1272       C  0.27594226  0.19628920  0.91715054    -0.12800
C1273       C  0.28102243  0.18987822  0.94049931     0.05700
C1274       C  0.29918219  0.20128867  0.95291872    -0.08800
C1275       C  0.31205721  0.21940625  0.94196194     0.06600
C1276       C  0.30629783  0.22651599  0.91890689    -0.13100
Br1277     Br  0.24453251  0.24801863  0.90469483    -0.05200
Br1278     Br  0.30720832  0.20937099  0.81326746     0.00400
Br1279     Br  0.26333886  0.16515049  0.95547690     0.00900
Br1280     Br  0.32282686  0.25231339  0.90443366    -0.03500
Br1281     Br  0.22805777  0.26153977  0.84996818     0.01000
Br1282     Br  0.32176159  0.19351399  0.86779579    -0.02800
Br1283     Br  0.25234632  0.17932923  0.89960587    -0.03700
Br1284     Br  0.33779599  0.23412928  0.95844055     0.00300
C1285       C  0.75815912  0.27320429  0.66404903     0.01700
C1286       C  0.74110727  0.26924857  0.64638321     0.04500
C1287       C  0.74563264  0.27601757  0.62294779    -0.11500
C1288       C  0.76686831  0.28737942  0.61715161     0.23800
C1289       C  0.78348994  0.29216660  0.63492045    -0.12100
C1290       C  0.77927085  0.28495153  0.65823659     0.05200
C1291       C  0.77190041  0.29430538  0.59239584     0.27600
C1292       C  0.78528213  0.27943614  0.57780336    -0.12800
C1293       C  0.79199913  0.28688533  0.55515178     0.05700
C1294       C  0.78471124  0.30893976  0.54663805    -0.08800
C1295       C  0.77059290  0.32345873  0.56094270     0.06600
C1296       C  0.76431865  0.31621226  0.58380678    -0.13100
Br1297     Br  0.81194236  0.30899503  0.62724117    -0.05200
Br1298     Br  0.71178063  0.25397492  0.65399658     0.00400
Br1299     Br  0.81254396  0.26753747  0.53644294     0.00900
Br1300     Br  0.74576693  0.33643101  0.60368416    -0.03500
Br1301     Br  0.80198219  0.29239968  0.68242716     0.01000
Br1302     Br  0.72293598  0.26953476  0.59856628    -0.02800
Br1303     Br  0.79467170  0.24896573  0.58911397    -0.03700
Br1304     Br  0.76011164  0.35342896  0.54926814     0.00300
C1305       C  0.72743380  0.33537523  0.76787712     0.01700
C1306       C  0.71734654  0.34268901  0.78930700     0.04500
C1307       C  0.71362057  0.36672421  0.79364914    -0.11500
C1308       C  0.71992171  0.38353748  0.77656686     0.23800
C1309       C  0.73024001  0.37622213  0.75525544    -0.12100
C1310       C  0.73408630  0.35219458  0.75095149     0.05200
C1311       C  0.71535205  0.40885164  0.78099386     0.27600
C1312       C  0.69384261  0.41886955  0.77397362    -0.12800
C1313       C  0.68848958  0.44218555  0.78017264     0.05700
C1314       C  0.70473555  0.45568950  0.79320002    -0.08800
C1315       C  0.72687150  0.44613378  0.79888685     0.06600
C1316       C  0.73211274  0.42270805  0.79291397    -0.13100
Br1317     Br  0.73923169  0.39924095  0.73210474    -0.05200
Br1318     Br  0.70803606  0.31968392  0.81242969     0.00400
Br1319     Br  0.65881658  0.45568583  0.77095516     0.00900
Br1320     Br  0.76199021  0.40927451  0.80152332    -0.03500
Br1321     Br  0.74960426  0.34236752  0.72239343     0.01000
Br1322     Br  0.69986164  0.37671381  0.82301084    -0.02800
Br1323     Br  0.67161259  0.40039200  0.75618818    -0.03700
Br1324     Br  0.74964654  0.46485942  0.81564845     0.00300
C1325       C  0.80843614  0.04580236  0.70648698     0.01700
C1326       C  0.82383499  0.06252750  0.71657563     0.04500
C1327       C  0.81572981  0.08525016  0.72200718    -0.11500
C1328       C  0.79214918  0.09138438  0.71762235     0.23800
C1329       C  0.77662628  0.07461672  0.70805221    -0.12100
C1330       C  0.78478021  0.05200069  0.70227584     0.05200
C1331       C  0.78387995  0.11567426  0.72251197     0.27600
C1332       C  0.77750665  0.12225677  0.74552381    -0.12800
C1333       C  0.77063833  0.14549629  0.75038545     0.05700
C1334       C  0.76945352  0.16223665  0.73204568    -0.08800
C1335       C  0.77546224  0.15542905  0.70886005     0.06600
C1336       C  0.78288702  0.13230697  0.70421234    -0.13100
Br1337     Br  0.74428726  0.08299677  0.70224958    -0.05200
Br1338     Br  0.85619908  0.05446714  0.72272069     0.00400
Br1339     Br  0.76453834  0.15450762  0.78259913     0.00900
Br1340     Br  0.79201766  0.12332860  0.67275240    -0.03500
Br1341     Br  0.76387180  0.03026041  0.68686177     0.01000
Br1342     Br  0.83704743  0.10836620  0.73481701    -0.02800
Br1343     Br  0.77850250  0.09930330  0.77044101    -0.03700
Br1344     Br  0.77273392  0.17733417  0.68308070     0.00300
C1345       C  0.53998422  0.19710125  0.70141677     0.01700
C1346       C  0.55537634  0.20968604  0.68656857     0.04500
C1347       C  0.57807851  0.21592390  0.69441716    -0.11500
C1348       C  0.58543402  0.21019562  0.71740993     0.23800
C1349       C  0.56964924  0.19863774  0.73266560    -0.12100
C1350       C  0.54718133  0.19173996  0.72457727     0.05200
C1351       C  0.60998955  0.21577481  0.72512323     0.27600
C1352       C  0.62770496  0.19857520  0.72356848    -0.12800
C1353       C  0.65121466  0.20412592  0.72938518     0.05700
C1354       C  0.65743505  0.22726215  0.73616474    -0.08800
C1355       C  0.63950860  0.24439527  0.73799116     0.06600
C1356       C  0.61590796  0.23853895  0.73283741    -0.13100
Br1357     Br  0.57888981  0.19238098  0.76468386    -0.05200
Br1358     Br  0.54516952  0.21876832  0.65552533     0.00400
Br1359     Br  0.67492684  0.18004715  0.72659271     0.00900
Br1360     Br  0.59143759  0.26168525  0.73625463    -0.03500
Br1361     Br  0.52671038  0.17393320  0.74487612     0.01000
Br1362     Br  0.59936134  0.23210996  0.67355494    -0.02800
Br1363     Br  0.61975621  0.16751284  0.71252370    -0.03700
Br1364     Br  0.64690114  0.27587221  0.74821466     0.00300
C1365       C  0.73347076  0.22840555  0.84000608     0.01700
C1366       C  0.75048655  0.23449799  0.85723904     0.04500
C1367       C  0.74564536  0.23124141  0.88136149    -0.11500
C1368       C  0.72423732  0.22108590  0.88848971     0.23800
C1369       C  0.70753989  0.21438923  0.87144254    -0.12100
C1370       C  0.71194231  0.21821848  0.84735900     0.05200
C1371       C  0.71941774  0.21643271  0.91381165     0.27600
C1372       C  0.72830034  0.19595393  0.92446830    -0.12800
C1373       C  0.72131347  0.18986702  0.94741554     0.05700
C1374       C  0.70463803  0.20361963  0.95940732    -0.08800
C1375       C  0.69662810  0.22471582  0.94927540     0.06600
C1376       C  0.70436065  0.23133663  0.92666819    -0.13100
Br1377     Br  0.67847852  0.19979915  0.88128980    -0.05200
Br1378     Br  0.78119399  0.24586617  0.84813584     0.00400
Br1379     Br  0.73403155  0.16231608  0.96235910     0.00900
Br1380     Br  0.69371492  0.26031937  0.91282664    -0.03500
Br1381     Br  0.68763015  0.21028242  0.82491470     0.01000
Br1382     Br  0.76828546  0.24068174  0.90485958    -0.02800
Br1383     Br  0.74888000  0.17546501  0.90704069    -0.03700
Br1384     Br  0.67425417  0.24390826  0.96594334     0.00300
C1385       C  0.83446136  0.26621959  0.76876553     0.01700
C1386       C  0.84118226  0.28896776  0.77610436     0.04500
C1387       C  0.86451155  0.29350771  0.78310226    -0.11500
C1388       C  0.88170161  0.27577077  0.78151449     0.23800
C1389       C  0.87535968  0.25343591  0.77290325    -0.12100
C1390       C  0.85175100  0.24847924  0.76705036     0.05200
C1391       C  0.90652658  0.28100580  0.78823499     0.27600
C1392       C  0.92094606  0.29411644  0.77292593    -0.12800
C1393       C  0.94354537  0.30127215  0.78014126     0.05700
C1394       C  0.95214615  0.29486606  0.80250286    -0.08800
C1395       C  0.93817940  0.28078347  0.81737725     0.06600
C1396       C  0.91541827  0.27389714  0.81029416    -0.13100
Br1397     Br  0.89923255  0.22978433  0.76879559    -0.05200
Br1398     Br  0.81892159  0.31451726  0.77492771     0.00400
Br1399     Br  0.96216978  0.32096447  0.75984745     0.00900
Br1400     Br  0.89626001  0.25504104  0.83094996    -0.03500
Br1401     Br  0.84317606  0.21702123  0.75772474     0.01000
Br1402     Br  0.87298977  0.32415216  0.79492710    -0.02800
Br1403     Br  0.90949259  0.30244583  0.74208434    -0.03700
Br1404     Br  0.95028479  0.27110875  0.84756060     0.00300
C1405       C  0.23046970  0.72965449  0.65999383     0.01700
C1406       C  0.20917412  0.71837090  0.65411658     0.04500
C1407       C  0.20388275  0.71344154  0.63041137    -0.11500
C1408       C  0.21996239  0.71955828  0.61256333     0.23800
C1409       C  0.24091526  0.73138862  0.61836828    -0.12100
C1410       C  0.24607242  0.73654158  0.64201881     0.05200
C1411       C  0.21542772  0.71229885  0.58790041     0.27600
C1412       C  0.22456674  0.69086678  0.57962271    -0.12800
C1413       C  0.21899804  0.68296753  0.55684461     0.05700
C1414       C  0.20465959  0.69671740  0.54207058    -0.08800
C1415       C  0.19586434  0.71836681  0.55020514     0.06600
C1416       C  0.20125566  0.72615843  0.57309776    -0.13100
Br1417     Br  0.26256427  0.74034131  0.59383126    -0.05200
Br1418     Br  0.18773242  0.70874854  0.67858680     0.00400
Br1419     Br  0.23024851  0.65285321  0.54617864     0.00900
Br1420     Br  0.18859457  0.75536851  0.58458554    -0.03500
Br1421     Br  0.27407346  0.75388947  0.64970597     0.01000
Br1422     Br  0.17478171  0.69798747  0.62226141    -0.02800
Br1423     Br  0.24415853  0.67203985  0.59988354    -0.03700
Br1424     Br  0.17505281  0.73649770  0.53058040     0.00300
C1425       C  0.33929772  0.75771439  0.72464196     0.01700
C1426       C  0.34622010  0.76747540  0.70296729     0.04500
C1427       C  0.37021771  0.77027223  0.69767108    -0.11500
C1428       C  0.38742524  0.76359362  0.71419834     0.23800
C1429       C  0.38055046  0.75303821  0.73553917    -0.12100
C1430       C  0.35650907  0.75011695  0.74075162     0.05200
C1431       C  0.41243119  0.76983462  0.70995896     0.27600
C1432       C  0.42644240  0.75626297  0.69466752    -0.12800
C1433       C  0.44902821  0.76417889  0.68828864     0.05700
C1434       C  0.45785776  0.78528504  0.69773247    -0.08800
C1435       C  0.44446139  0.79803588  0.71415843     0.06600
C1436       C  0.42164259  0.79055830  0.71996305    -0.13100
Br1437     Br  0.40415583  0.74297249  0.75767318    -0.05200
Br1438     Br  0.32282514  0.77813216  0.68102094     0.00400
Br1439     Br  0.46751263  0.74682699  0.66579341     0.00900
Br1440     Br  0.40247731  0.80941092  0.74064012    -0.03500
Br1441     Br  0.34704712  0.73584909  0.77000447     0.01000
Br1442     Br  0.37958664  0.78393688  0.66803328    -0.02800
Br1443     Br  0.41430416  0.72732658  0.68190231    -0.03700
Br1444     Br  0.45730763  0.82604479  0.72832017     0.00300
C1445       C  0.04491853  0.70767257  0.79862054     0.01700
C1446       C  0.05488190  0.69850592  0.77786463     0.04500
C1447       C  0.07734257  0.70595210  0.77056879    -0.11500
C1448       C  0.09032672  0.72183938  0.78454025     0.23800
C1449       C  0.08002686  0.73156207  0.80489423    -0.12100
C1450       C  0.05723678  0.72473072  0.81171562     0.05200
C1451       C  0.11550120  0.72648169  0.77912364     0.27600
C1452       C  0.13250501  0.70951078  0.78492511    -0.12800
C1453       C  0.15629775  0.71313348  0.77913564     0.05700
C1454       C  0.16361184  0.73467724  0.76906772    -0.08800
C1455       C  0.14655282  0.75221660  0.76446372     0.06600
C1456       C  0.12254730  0.74775254  0.76870562    -0.13100
Br1457     Br  0.09759775  0.75340118  0.82403304    -0.05200
Br1458     Br  0.03834150  0.67468619  0.76026763     0.00400
Br1459     Br  0.17820254  0.68768816  0.78390770     0.00900
Br1460     Br  0.09919281  0.77082910  0.76037736    -0.03500
Br1461     Br  0.04296465  0.73836956  0.83928618     0.01000
Br1462     Br  0.09069678  0.69396222  0.74177046    -0.02800
Br1463     Br  0.12309156  0.68140553  0.80144297    -0.03700
Br1464     Br  0.15578790  0.78315416  0.75397117     0.00300
C1465       C  0.27066678  0.66156872  0.76707521     0.01700
C1466       C  0.26373450  0.64257157  0.75268076     0.04500
C1467       C  0.27036583  0.61947003  0.75856751    -0.11500
C1468       C  0.28375035  0.61517767  0.77898803     0.23800
C1469       C  0.29085531  0.63414481  0.79327038    -0.12100
C1470       C  0.28430784  0.65724638  0.78738781     0.05200
C1471       C  0.29024667  0.59073575  0.78561712     0.27600
C1472       C  0.27604908  0.57794971  0.80142412    -0.12800
C1473       C  0.28268088  0.55519175  0.80847841     0.05700
C1474       C  0.30352988  0.54508427  0.79973041    -0.08800
C1475       C  0.31773822  0.55789583  0.78395980     0.06600
C1476       C  0.31102800  0.58057117  0.77678692    -0.13100
Br1477     Br  0.30999909  0.62837007  0.82069347    -0.05200
Br1478     Br  0.24421088  0.64805126  0.72548631     0.00400
Br1479     Br  0.26392581  0.53832710  0.83112340     0.00900
Br1480     Br  0.33052336  0.59801119  0.75523348    -0.03500
Br1481     Br  0.29495663  0.68307125  0.80669397     0.01000
Br1482     Br  0.26131619  0.59357848  0.73863301    -0.02800
Br1483     Br  0.24782190  0.59198577  0.81383719    -0.03700
Br1484     Br  0.34678823  0.54454685  0.77270779     0.00300
C1485       C  0.27011715  0.77198890  0.83365463     0.01700
C1486       C  0.25192206  0.77236263  0.85066183     0.04500
C1487       C  0.25688695  0.77860933  0.87415442    -0.11500
C1488       C  0.27985443  0.78506850  0.88078439     0.23800
C1489       C  0.29799554  0.78485964  0.86391879    -0.12100
C1490       C  0.29326901  0.77798706  0.84055116     0.05200
C1491       C  0.28486923  0.79218250  0.90551009     0.27600
C1492       C  0.28059545  0.81540856  0.91285491    -0.12800
C1493       C  0.28512591  0.82213126  0.93627941     0.05700
C1494       C  0.29454964  0.80580923  0.95239367    -0.08800
C1495       C  0.29895800  0.78258025  0.94496925     0.06600
C1496       C  0.29379529  0.77572094  0.92169223    -0.13100
Br1497     Br  0.32937195  0.79413501  0.87296253    -0.05200
Br1498     Br  0.21982703  0.76550308  0.84186722     0.00400
Br1499     Br  0.27806007  0.85369223  0.94638556     0.00900
Br1500     Br  0.29908996  0.74378865  0.91176908    -0.03500
Br1501     Br  0.31899501  0.77544712  0.81854114     0.01000
Br1502     Br  0.23223037  0.77842652  0.89748949    -0.02800
Br1503     Br  0.26885389  0.83807803  0.89059378    -0.03700
Br1504     Br  0.31333955  0.76046427  0.96622303     0.00300
C1505       C  0.23385706  0.83744627  0.73000621     0.01700
C1506       C  0.23757272  0.85451264  0.74779713     0.04500
C1507       C  0.23168620  0.87824716  0.74379202    -0.11500
C1508       C  0.22186830  0.88520724  0.72214342     0.23800
C1509       C  0.21851851  0.86839282  0.70424752    -0.12100
C1510       C  0.22454779  0.84468068  0.70806055     0.05200
C1511       C  0.21449030  0.91007136  0.71826730     0.27600
C1512       C  0.19163643  0.91731377  0.72453413    -0.12800
C1513       C  0.18399422  0.94027034  0.71937969     0.05700
C1514       C  0.19919630  0.95626919  0.70802798    -0.08800
C1515       C  0.22219760  0.94913689  0.70210454     0.06600
C1516       C  0.22983846  0.92616089  0.70730237    -0.13100
Br1517     Br  0.20553389  0.87806087  0.67441137    -0.05200
Br1518     Br  0.24943588  0.84548443  0.77831801     0.00400
Br1519     Br  0.15243108  0.94970086  0.72743736     0.00900
Br1520     Br  0.26110577  0.91633895  0.69874675    -0.03500
Br1521     Br  0.22094482  0.82248926  0.68258984     0.01000
Br1522     Br  0.23677313  0.90141380  0.76805270    -0.02800
Br1523     Br  0.17058691  0.89543424  0.73961121    -0.03700
Br1524     Br  0.24269084  0.97032811  0.68538358     0.00300
C1525       C  0.76221260  0.73054682  0.66067297     0.01700
C1526       C  0.74384022  0.73280651  0.64406369     0.04500
C1527       C  0.74753889  0.72629669  0.62040384    -0.11500
C1528       C  0.76947094  0.71732219  0.61327779     0.23800
C1529       C  0.78784737  0.71525551  0.62973592    -0.12100
C1530       C  0.78428217  0.72178897  0.65333726     0.05200
C1531       C  0.77352189  0.71005575  0.58847916     0.27600
C1532       C  0.76976197  0.68657687  0.58165498    -0.12800
C1533       C  0.77609235  0.67906655  0.55890286     0.05700
C1534       C  0.78649781  0.69494999  0.54292268    -0.08800
C1535       C  0.78920896  0.71872702  0.54946721     0.06600
C1536       C  0.78283760  0.72619999  0.57221903    -0.13100
Br1537     Br  0.81802461  0.70339176  0.61975381    -0.05200
Br1538     Br  0.71390220  0.74579539  0.65331381     0.00400
Br1539     Br  0.77037788  0.64699115  0.54956466     0.00900
Br1540     Br  0.78804627  0.75830842  0.58174285    -0.03500
Br1541     Br  0.80952992  0.71746141  0.67569042     0.01000
Br1542     Br  0.72278181  0.72998521  0.59752288    -0.02800
Br1543     Br  0.75691163  0.66453284  0.60396664    -0.03700
Br1544     Br  0.80284868  0.74096148  0.52790124     0.00300
C1545       C  0.73253072  0.66367382  0.76542634     0.01700
C1546       C  0.72323181  0.65646364  0.78728524     0.04500
C1547       C  0.71879120  0.63253097  0.79160607    -0.11500
C1548       C  0.72426897  0.61553709  0.77442625     0.23800
C1549       C  0.73416154  0.62261871  0.75283198    -0.12100
C1550       C  0.73791011  0.64664551  0.74816219     0.05200
C1551       C  0.71911033  0.59032819  0.77911355     0.27600
C1552       C  0.73493024  0.57665734  0.79238178    -0.12800
C1553       C  0.72861335  0.55379723  0.79946618     0.05700
C1554       C  0.70679741  0.54420179  0.79261164    -0.08800
C1555       C  0.69164638  0.55734549  0.77809378     0.06600
C1556       C  0.69757305  0.58049324  0.77173489    -0.13100
Br1557     Br  0.74306148  0.59924280  0.72996750    -0.05200
Br1558     Br  0.71579390  0.67942400  0.81113905     0.00400
Br1559     Br  0.74919827  0.53609859  0.81969251     0.00900
Br1560     Br  0.67567586  0.59924451  0.75396163    -0.03500
Br1561     Br  0.75135249  0.65609218  0.71845276     0.01000
Br1562     Br  0.70491546  0.62289392  0.82104598    -0.02800
Br1563     Br  0.76489704  0.58968035  0.80147235    -0.03700
Br1564     Br  0.66259829  0.54365125  0.76719298     0.00300
C1565       C  0.66356076  0.77087734  0.73459303     0.01700
C1566       C  0.65707086  0.79252262  0.72440328     0.04500
C1567       C  0.63328720  0.79736825  0.71976112    -0.11500
C1568       C  0.61592235  0.78055327  0.72497181     0.23800
C1569       C  0.62218201  0.75929088  0.73583962    -0.12100
C1570       C  0.64595458  0.75441298  0.74064993     0.05200
C1571       C  0.59146603  0.78431544  0.71688819     0.27600
C1572       C  0.57517768  0.79630499  0.73115179    -0.12800
C1573       C  0.55233041  0.80067556  0.72272747     0.05700
C1574       C  0.54569063  0.79275494  0.70016352    -0.08800
C1575       C  0.56187364  0.78029072  0.68616365     0.06600
C1576       C  0.58481473  0.77640197  0.69436493    -0.13100
Br1577     Br  0.59803243  0.73679660  0.74370520    -0.05200
Br1578     Br  0.68076318  0.81490667  0.71495408     0.00400
Br1579     Br  0.53052082  0.81854334  0.74154494     0.00900
Br1580     Br  0.60755770  0.76105960  0.67439228    -0.03500
Br1581     Br  0.65416870  0.72533506  0.75594848     0.01000
Br1582     Br  0.62436236  0.82674837  0.70547610    -0.02800
Br1583     Br  0.58456590  0.80744793  0.76179011    -0.03700
Br1584     Br  0.55259598  0.76833983  0.65578894     0.00300
C1585       C  0.70954218  0.80177466  0.95527137     0.01700
C1586       C  0.72306479  0.81699494  0.94115891     0.04500
C1587       C  0.72910611  0.81051015  0.91806004    -0.11500
C1588       C  0.72321301  0.78803476  0.90953482     0.23800
C1589       C  0.71166059  0.77194596  0.92443184    -0.12100
C1590       C  0.70437699  0.77896907  0.94708786     0.05200
C1591       C  0.72799232  0.78194535  0.88452341     0.27600
C1592       C  0.70994175  0.78410451  0.86767886    -0.12800
C1593       C  0.71455063  0.77964692  0.84374853     0.05700
C1594       C  0.73730270  0.77280001  0.83649727    -0.08800
C1595       C  0.75539866  0.77070148  0.85343059     0.06600
C1596       C  0.75068172  0.77510123  0.87737478    -0.13100
Br1597     Br  0.70514248  0.74061104  0.91334243    -0.05200
Br1598     Br  0.73382543  0.84652609  0.95374875     0.00400
Br1599     Br  0.68926300  0.78223911  0.82118632     0.00900
Br1600     Br  0.77525582  0.77176794  0.90053005    -0.03500
Br1601     Br  0.68647245  0.75774750  0.96645563     0.01000
Br1602     Br  0.74421145  0.83292079  0.89758543    -0.02800
Br1603     Br  0.67876593  0.79315459  0.87754479    -0.03700
Br1604     Br  0.78709075  0.76326477  0.84379778     0.00300
C1605       C  0.77915308  0.83799837  0.73206716     0.01700
C1606       C  0.78979494  0.84404488  0.71028628     0.04500
C1607       C  0.79744390  0.86724043  0.70610051    -0.11500
C1608       C  0.79421161  0.88474490  0.72328287     0.23800
C1609       C  0.78432316  0.87877232  0.74516514    -0.12100
C1610       C  0.77705729  0.85552142  0.74969723     0.05200
C1611       C  0.80040428  0.90963054  0.71800115     0.27600
C1612       C  0.82283852  0.91854978  0.72363391    -0.12800
C1613       C  0.82862128  0.94202085  0.71829223     0.05700
C1614       C  0.81208609  0.95668189  0.70701885    -0.08800
C1615       C  0.78969290  0.94764520  0.70129232     0.06600
C1616       C  0.78383620  0.92427976  0.70690648    -0.13100
Br1617     Br  0.78090508  0.90271587  0.76896715    -0.05200
Br1618     Br  0.79314147  0.82120179  0.68534556     0.00400
Br1619     Br  0.85943679  0.95399023  0.72598878     0.00900
Br1620     Br  0.75337744  0.91187713  0.69851910    -0.03500
Br1621     Br  0.76566673  0.84779638  0.78076354     0.01000
Br1622     Br  0.81237928  0.87532485  0.67668400    -0.02800
Br1623     Br  0.84589463  0.89822413  0.73780783    -0.03700
Br1624     Br  0.76760271  0.96661130  0.68408928     0.00300
C1625       C  0.83868827  0.73147410  0.76527913     0.01700
C1626       C  0.84502517  0.70948011  0.77490712     0.04500
C1627       C  0.86875651  0.70446974  0.77977046    -0.11500
C1628       C  0.88635014  0.72110672  0.77465137     0.23800
C1629       C  0.88021524  0.74276634  0.76452655    -0.12100
C1630       C  0.85646030  0.74815461  0.76022672     0.05200
C1631       C  0.91104012  0.71651804  0.78174268     0.27600
C1632       C  0.91937014  0.72534647  0.80337073    -0.12800
C1633       C  0.94229886  0.72010479  0.81091107     0.05700
C1634       C  0.95671766  0.70531536  0.79727873    -0.08800
C1635       C  0.94851829  0.69670291  0.77548853     0.06600
C1636       C  0.92583263  0.70262503  0.76754564    -0.13100
Br1637     Br  0.90451769  0.76524931  0.75711456    -0.05200
Br1638     Br  0.82152615  0.68571677  0.78102119     0.00400
Br1639     Br  0.95402835  0.73314167  0.83998733     0.00900
Br1640     Br  0.91471360  0.69132888  0.73753066    -0.03500
Br1641     Br  0.84846983  0.77925646  0.74932829     0.01000
Br1642     Br  0.87728873  0.67495743  0.79404711    -0.02800
Br1643     Br  0.89892799  0.74386721  0.82309646    -0.03700
Br1644     Br  0.96786591  0.67575944  0.75719323     0.00300
C1645       C  0.34808822  0.85275201  0.00337869     0.01700
C1646       C  0.37091552  0.84329596  0.00472122     0.04500
C1647       C  0.39046269  0.85832765  0.00632727    -0.11500
C1648       C  0.38712090  0.88279010  0.00667712     0.23800
C1649       C  0.36425045  0.89220880  0.00594882    -0.12100
C1650       C  0.34472922  0.87718545  0.00428734     0.05200
C1651       C  0.40749880  0.89888009  0.00595498     0.27600
C1652       C  0.41683745  0.90819123  0.02693112    -0.12800
C1653       C  0.43367508  0.92623678  0.02592588     0.05700
C1654       C  0.44164974  0.93444538  0.00394461    -0.08800
C1655       C  0.43352462  0.92390906  0.98302242     0.06600
C1656       C  0.41615720  0.90641213  0.98401649    -0.13100
Br1657     Br  0.35986575  0.92578625  0.00645236    -0.05200
Br1658     Br  0.37532463  0.80976233  0.00391170     0.00400
Br1659     Br  0.44566758  0.93999422  0.05454908     0.00900
Br1660     Br  0.40350534  0.89324723  0.95536704    -0.03500
Br1661     Br  0.31341674  0.89000016  0.00272174     0.01000
Br1662     Br  0.42182036  0.84558655  0.00737138    -0.02800
Br1663     Br  0.40620805  0.89643317  0.05689441    -0.03700
Br1664     Br  0.44605918  0.93365336  0.95305825     0.00300
C1665       C  0.34556511  0.14602421  0.00171041     0.01700
C1666       C  0.33822458  0.12283209  0.99713471     0.04500
C1667       C  0.35485956  0.10460732  0.99611725    -0.11500
C1668       C  0.37880106  0.10944904  0.00029750     0.23800
C1669       C  0.38602177  0.13253687  0.00560838    -0.12100
C1670       C  0.36943698  0.15081823  0.00619858     0.05200
C1671       C  0.39645825  0.09031262  0.99949140     0.27600
C1672       C  0.40324653  0.07898203  0.02043273    -0.12800
C1673       C  0.42135681  0.06221635  0.02005726     0.05700
C1674       C  0.43246702  0.05643138  0.99867376    -0.08800
C1675       C  0.42505524  0.06708731  0.97757881     0.06600
C1676       C  0.40720045  0.08415090  0.97800786    -0.13100
Br1677     Br  0.41874053  0.13903788  0.01181683    -0.05200
Br1678     Br  0.30528556  0.11610459  0.99260423     0.00400
Br1679     Br  0.43142181  0.04750801  0.04887908     0.00900
Br1680     Br  0.39769129  0.09945794  0.94930579    -0.03500
Br1681     Br  0.37932702  0.18248871  0.01298511     0.01000
Br1682     Br  0.34500902  0.07306283  0.98870373    -0.02800
Br1683     Br  0.38783751  0.08674782  0.04963981    -0.03700
Br1684     Br  0.43947556  0.05823290  0.94818567     0.00300
C1685       C  0.65080521  0.85423125  0.99432901     0.01700
C1686       C  0.65399781  0.87566021  0.98216651     0.04500
C1687       C  0.63610993  0.89266848  0.98217993    -0.11500
C1688       C  0.61529948  0.88878703  0.99494635     0.23800
C1689       C  0.61173958  0.86730325  0.00659491    -0.12100
C1690       C  0.62922150  0.84986749  0.00589429     0.05200
C1691       C  0.59708913  0.90732267  0.99588615     0.27600
C1692       C  0.59712585  0.92382180  0.01438601    -0.12800
C1693       C  0.57971078  0.94129194  0.01532786     0.05700
C1694       C  0.56275960  0.94279940  0.99728565    -0.08800
C1695       C  0.56341773  0.92690324  0.97825389     0.06600
C1696       C  0.58013972  0.90881072  0.97790717    -0.13100
Br1697     Br  0.58279442  0.86190863  0.02345622    -0.05200
Br1698     Br  0.68312036  0.88263035  0.96632610     0.00400
Br1699     Br  0.57876549  0.96286273  0.04150725     0.00900
Br1700     Br  0.57973517  0.88579561  0.95300113    -0.03500
Br1701     Br  0.62301453  0.81961195  0.01984993     0.01000
Br1702     Br  0.63997274  0.92152223  0.96479195    -0.02800
Br1703     Br  0.62108852  0.92239520  0.03836114    -0.03700
Br1704     Br  0.54162413  0.93022755  0.95244352     0.00300
C1705       C  0.64493320  0.15173700  0.99667823     0.01700
C1706       C  0.62118936  0.15854574  0.99542910     0.04500
C1707       C  0.60339140  0.14138904  0.99428027    -0.11500
C1708       C  0.60933126  0.11739046  0.99413144     0.23800
C1709       C  0.63312541  0.11059282  0.99485143    -0.12100
C1710       C  0.65089651  0.12774325  0.99620716     0.05200
C1711       C  0.59052951  0.09930252  0.99428792     0.27600
C1712       C  0.58290510  0.08976885  0.01584848    -0.12800
C1713       C  0.56524011  0.07249106  0.01614991     0.05700
C1714       C  0.55508804  0.06472420  0.99490388    -0.08800
C1715       C  0.56233554  0.07460625  0.97337018     0.06600
C1716       C  0.58020185  0.09172393  0.97303923    -0.13100
Br1717     Br  0.64123370  0.07773792  0.99434429    -0.05200
Br1718     Br  0.61316504  0.19138893  0.99560796     0.00400
Br1719     Br  0.55481742  0.05940705  0.04565423     0.00900
Br1720     Br  0.59086994  0.10456427  0.94353795    -0.03500
Br1721     Br  0.68344983  0.11842466  0.99770088     0.01000
Br1722     Br  0.57080065  0.15061293  0.99350251    -0.02800
Br1723     Br  0.59686728  0.10034571  0.04494179    -0.03700
Br1724     Br  0.54780034  0.06447828  0.94442314     0.00300
C1725       C  0.99432318  0.44154620  0.93927434     0.01700
C1726       C  0.01606674  0.43469725  0.92959722     0.04500
C1727       C  0.01683887  0.41725468  0.91208085    -0.11500
C1728       C  0.99580434  0.40720531  0.90364156     0.23800
C1729       C  0.97402852  0.41455675  0.91285613    -0.12100
C1730       C  0.97331804  0.43139696  0.93094723     0.05200
C1731       C  0.99657453  0.38806259  0.88594488     0.27600
C1732       C  0.99670095  0.39326740  0.86170441    -0.12800
C1733       C  0.99689861  0.37494051  0.84506411     0.05700
C1734       C  0.99689003  0.35141249  0.85263990    -0.08800
C1735       C  0.99717177  0.34623622  0.87686935     0.06600
C1736       C  0.99686313  0.36452962  0.89349497    -0.13100
Br1737     Br  0.94523246  0.40142831  0.90063981    -0.05200
Br1738     Br  0.04472867  0.44921249  0.94052464     0.00400
Br1739     Br  0.99729349  0.38191183  0.81186584     0.00900
Br1740     Br  0.99657023  0.35748925  0.92670073    -0.03500
Br1741     Br  0.94366133  0.44053978  0.94453487     0.01000
Br1742     Br  0.04666227  0.40672014  0.89993353    -0.02800
Br1743     Br  0.99629775  0.42549354  0.85143287    -0.03700
Br1744     Br  0.99817920  0.31404808  0.88722205     0.00300
C1745       C  0.99649443  0.36089508  0.15877994     0.01700
C1746       C  0.99461024  0.38508654  0.16352219     0.04500
C1747       C  0.99353149  0.40128264  0.14481680    -0.11500
C1748       C  0.99421760  0.39329992  0.12131042     0.23800
C1749       C  0.99599856  0.36908000  0.11662610    -0.12100
C1750       C  0.99716879  0.35293479  0.13530457     0.05200
C1751       C  0.99345114  0.41029592  0.10144945     0.27600
C1752       C  0.97198440  0.41525741  0.09009632    -0.12800
C1753       C  0.97144423  0.43067643  0.07072572     0.05700
C1754       C  0.99223916  0.44179260  0.06308692    -0.08800
C1755       C  0.01364362  0.43709355  0.07470318     0.06600
C1756       C  0.01431084  0.42109904  0.09356406    -0.13100
Br1757     Br  0.99718101  0.35811890  0.08452386    -0.05200
Br1758     Br  0.99358874  0.39589106  0.19567295     0.00400
Br1759     Br  0.94220962  0.43696374  0.05482036     0.00900
Br1760     Br  0.04378961  0.41386099  0.10867200    -0.03500
Br1761     Br  0.00004868  0.31984335  0.12879417     0.01000
Br1762     Br  0.99130439  0.43442395  0.15126907    -0.02800
Br1763     Br  0.94330778  0.40120266  0.10148343    -0.03700
Br1764     Br  0.04198634  0.45295443  0.06496338     0.00300
C1765       C  0.00000021  0.56381261  0.93951470     0.01700
C1766       C  0.98068575  0.57915673  0.93736589     0.04500
C1767       C  0.98098495  0.59716822  0.92044332    -0.11500
C1768       C  0.00069580  0.60011135  0.90572549     0.23800
C1769       C  0.02021483  0.58509390  0.90815856    -0.12100
C1770       C  0.01984978  0.56693724  0.92496527     0.05200
C1771       C  0.00073554  0.61875802  0.88743342     0.27600
C1772       C  0.99424177  0.61326513  0.86413184    -0.12800
C1773       C  0.99440591  0.63079731  0.84670955     0.05700
C1774       C  0.00101500  0.65396239  0.85251422    -0.08800
C1775       C  0.00721962  0.65953025  0.87590464     0.06600
C1776       C  0.00708400  0.64195646  0.89332097    -0.13100
Br1777     Br  0.04749892  0.58966382  0.88852903    -0.05200
Br1778     Br  0.95374838  0.57540812  0.95764377     0.00400
Br1779     Br  0.98596563  0.62296748  0.81473947     0.00900
Br1780     Br  0.01531884  0.64959246  0.92536220    -0.03500
Br1781     Br  0.04668841  0.54662168  0.92843769     0.01000
Br1782     Br  0.95436337  0.61784441  0.91727251    -0.02800
Br1783     Br  0.98490667  0.58166646  0.85621998    -0.03700
Br1784     Br  0.01510924  0.69140314  0.88424644     0.00300
C1785       C  0.00185156  0.65138678  0.14905010     0.01700
C1786       C  0.00976767  0.65682901  0.12617492     0.04500
C1787       C  0.01105055  0.63914686  0.10897831    -0.11500
C1788       C  0.00402906  0.61612025  0.11450955     0.23800
C1789       C  0.99626567  0.61060961  0.13736482    -0.12100
C1790       C  0.99502951  0.62825690  0.15460345     0.05200
C1791       C  0.00299760  0.59807346  0.09585752     0.27600
C1792       C  0.98237781  0.59572025  0.08232613    -0.12800
C1793       C  0.98083945  0.57812016  0.06511151     0.05700
C1794       C  0.99992938  0.56287962  0.06141694    -0.08800
C1795       C  0.02061515  0.56529201  0.07484897     0.06600
C1796       C  0.02218270  0.58296610  0.09203549    -0.13100
Br1797     Br  0.98716715  0.57884110  0.14483022    -0.05200
Br1798     Br  0.01750593  0.68876210  0.11799030     0.00400
Br1799     Br  0.95249932  0.57456831  0.04678182     0.00900
Br1800     Br  0.05048789  0.58658296  0.11035931    -0.03500
Br1801     Br  0.98384008  0.62076689  0.18575061     0.01000
Br1802     Br  0.02208740  0.64636727  0.07770534    -0.02800
Br1803     Br  0.95622578  0.61660437  0.08757185    -0.03700
Br1804     Br  0.04669600  0.54434766  0.06957410     0.00300
C1805       C  0.44423770  0.50968236  0.06128444     0.01700
C1806       C  0.43000779  0.52920238  0.06656131     0.04500
C1807       C  0.41311932  0.52775724  0.08461908    -0.11500
C1808       C  0.41006797  0.50665027  0.09718988     0.23800
C1809       C  0.42449340  0.48721300  0.09211600    -0.12100
C1810       C  0.44164223  0.48878538  0.07431217     0.05200
C1811       C  0.39118854  0.50482783  0.11520754     0.27600
C1812       C  0.39635942  0.50818696  0.13925780    -0.12800
C1813       C  0.37817062  0.50758230  0.15606789     0.05700
C1814       C  0.35479154  0.50363280  0.14887552    -0.08800
C1815       C  0.34959596  0.50044580  0.12485664     0.06600
C1816       C  0.36779266  0.50066094  0.10810081    -0.13100
Br1817     Br  0.42064928  0.45845259  0.10955462    -0.05200
Br1818     Br  0.43392017  0.55796330  0.04918558     0.00400
Br1819     Br  0.38510172  0.51239969  0.18895418     0.00900
Br1820     Br  0.36077246  0.49503320  0.07536575    -0.03500
Br1821     Br  0.46162403  0.46229646  0.06761392     0.01000
Br1822     Br  0.39428062  0.55476560  0.09247764    -0.02800
Br1823     Br  0.42835519  0.51363440  0.14908132    -0.03700
Br1824     Br  0.31737445  0.49669752  0.11490627     0.00300
C1825       C  0.56483792  0.50958934  0.06444000     0.01700
C1826       C  0.57754308  0.52959641  0.07162410     0.04500
C1827       C  0.59366958  0.52797258  0.09033371    -0.11500
C1828       C  0.59728308  0.50627348  0.10163683     0.23800
C1829       C  0.58424513  0.48640963  0.09471034    -0.12100
C1830       C  0.56789595  0.48811749  0.07627692     0.05200
C1831       C  0.61537069  0.50399327  0.12024992     0.27600
C1832       C  0.63858069  0.49801325  0.11406451    -0.12800
C1833       C  0.65572371  0.49522173  0.13166126     0.05700
C1834       C  0.64965833  0.49830685  0.15549435    -0.08800
C1835       C  0.62640977  0.50420114  0.16168944     0.06600
C1836       C  0.60929456  0.50713445  0.14406969    -0.13100
Br1837     Br  0.58904448  0.45681691  0.11040646    -0.05200
Br1838     Br  0.57257840  0.55914708  0.05592787     0.00400
Br1839     Br  0.68776416  0.48817211  0.12311103     0.00900
Br1840     Br  0.57764147  0.51592841  0.15237857    -0.03500
Br1841     Br  0.54954884  0.46108513  0.06716969     0.01000
Br1842     Br  0.61085487  0.55533857  0.10056495    -0.02800
Br1843     Br  0.64686927  0.49416251  0.08136825    -0.03700
Br1844     Br  0.61815747  0.50837898  0.19435375     0.00300
C1845       C  0.44755452  0.50656903  0.93812108     0.01700
C1846       C  0.44038293  0.48446410  0.92956134     0.04500
C1847       C  0.42218685  0.48287522  0.91287162    -0.11500
C1848       C  0.41152567  0.50342046  0.90423905     0.23800
C1849       C  0.41903307  0.52555996  0.91240813    -0.12100
C1850       C  0.43696046  0.52713146  0.92940544     0.05200
C1851       C  0.39260764  0.50179241  0.88634015     0.27600
C1852       C  0.39834247  0.50208783  0.86222496    -0.12800
C1853       C  0.38039477  0.50130872  0.84521200     0.05700
C1854       C  0.35669327  0.50007073  0.85228601    -0.08800
C1855       C  0.35096167  0.49937927  0.87637470     0.06600
C1856       C  0.36890498  0.50024902  0.89340296    -0.13100
Br1857     Br  0.40447381  0.55365510  0.90043261    -0.05200
Br1858     Br  0.45551633  0.45640466  0.94087670     0.00400
Br1859     Br  0.38817459  0.50212422  0.81219169     0.00900
Br1860     Br  0.36113543  0.49947481  0.92641722    -0.03500
Br1861     Br  0.44708287  0.55738323  0.94081517     0.01000
Br1862     Br  0.41146480  0.45259648  0.90208682    -0.02800
Br1863     Br  0.43083205  0.50366488  0.85263202    -0.03700
Br1864     Br  0.31846409  0.49757919  0.88589760     0.00300
C1865       C  0.57020381  0.50497556  0.94163576     0.01700
C1866       C  0.58720287  0.52304465  0.94022983     0.04500
C1867       C  0.60514310  0.52205454  0.92314621    -0.11500
C1868       C  0.60625441  0.50304321  0.90730717     0.23800
C1869       C  0.58953456  0.48481020  0.90890130    -0.12100
C1870       C  0.57153267  0.48579546  0.92592187     0.05200
C1871       C  0.62413295  0.50282601  0.88811785     0.27600
C1872       C  0.61771237  0.50999945  0.86527303    -0.12800
C1873       C  0.63408415  0.50885003  0.84674657     0.05700
C1874       C  0.65733039  0.50147808  0.85109861    -0.08800
C1875       C  0.66396366  0.49482086  0.87406604     0.06600
C1876       C  0.64734086  0.49527583  0.89248669    -0.13100
Br1877     Br  0.59138035  0.45847633  0.88760581    -0.05200
Br1878     Br  0.58552757  0.54961310  0.96124002     0.00400
Br1879     Br  0.62432918  0.51642225  0.81515038     0.00900
Br1880     Br  0.65630878  0.48570571  0.92375486    -0.03500
Br1881     Br  0.54873728  0.46074841  0.92775447     0.01000
Br1882     Br  0.62802044  0.54699520  0.92103432    -0.02800
Br1883     Br  0.58647791  0.52182654  0.85950421    -0.03700
Br1884     Br  0.69597234  0.48559044  0.88034282     0.00300
C1885       C  0.06147806  0.55749497  0.49298525     0.01700
C1886       C  0.06776223  0.57035606  0.47281165     0.04500
C1887       C  0.08621323  0.58669748  0.47400696    -0.11500
C1888       C  0.09812626  0.59031774  0.49543731     0.23800
C1889       C  0.09197128  0.57730489  0.51554537    -0.12100
C1890       C  0.07358467  0.56092284  0.51433013     0.05200
C1891       C  0.11683315  0.60819004  0.49691027     0.27600
C1892       C  0.14017598  0.60210253  0.49151850    -0.12800
C1893       C  0.15787974  0.61925117  0.49244084     0.05700
C1894       C  0.15212218  0.64255994  0.49830455    -0.08800
C1895       C  0.12876857  0.64862249  0.50383176     0.06600
C1896       C  0.11114860  0.63135505  0.50335829    -0.13100
Br1897     Br  0.10875596  0.58203373  0.54467004    -0.05200
Br1898     Br  0.05085980  0.56570794  0.44375953     0.00400
Br1899     Br  0.19008966  0.61076860  0.48614505     0.00900
Br1900     Br  0.07916078  0.63932484  0.51131223    -0.03500
Br1901     Br  0.06450725  0.54348810  0.54196880     0.01000
Br1902     Br  0.09529341  0.60416335  0.44639779    -0.02800
Br1903     Br  0.14770882  0.57030406  0.48267771    -0.03700
Br1904     Br  0.12081512  0.68070838  0.51121081     0.00300
C1905       C  0.14577855  0.35023935  0.49198481     0.01700
C1906       C  0.12217270  0.34294548  0.49368412     0.04500
C1907       C  0.10400331  0.35959770  0.49246884    -0.11500
C1908       C  0.10945637  0.38350978  0.48931034     0.23800
C1909       C  0.13304303  0.39071241  0.48704118    -0.12100
C1910       C  0.15120643  0.37410227  0.48849621     0.05200
C1911       C  0.09053195  0.40129861  0.48930595     0.27600
C1912       C  0.07959794  0.40784226  0.46806426    -0.12800
C1913       C  0.06215151  0.42529495  0.46810528     0.05700
C1914       C  0.05605670  0.43658670  0.48929858    -0.08800
C1915       C  0.06699247  0.43001511  0.51052957     0.06600
C1916       C  0.08407285  0.41225260  0.51056386    -0.13100
Br1917     Br  0.14033278  0.42344058  0.48226607    -0.05200
Br1918     Br  0.11487210  0.31010846  0.49757446     0.00400
Br1919     Br  0.04661170  0.43390844  0.43924073     0.00900
Br1920     Br  0.09888847  0.40300104  0.53965113    -0.03500
Br1921     Br  0.18355585  0.38405976  0.48634107     0.01000
Br1922     Br  0.07167002  0.34983512  0.49547254    -0.02800
Br1923     Br  0.08894647  0.39317143  0.43895654    -0.03700
Br1924     Br  0.05855392  0.44549800  0.53952200     0.00300
C1925       C  0.93394847  0.44174626  0.49765355     0.01700
C1926       C  0.92707081  0.43200711  0.51936088     0.04500
C1927       C  0.90882431  0.41542047  0.52012074    -0.11500
C1928       C  0.89705541  0.40904933  0.49926824     0.23800
C1929       C  0.90376703  0.41895117  0.47758775    -0.12100
C1930       C  0.92251270  0.43497576  0.47671815     0.05200
C1931       C  0.87759233  0.39190609  0.50015958     0.27600
C1932       C  0.88248236  0.36771048  0.49926774    -0.12800
C1933       C  0.86394935  0.35141513  0.49990087     0.05700
C1934       C  0.84059642  0.35932600  0.50189053    -0.08800
C1935       C  0.83570418  0.38351243  0.50271668     0.06600
C1936       C  0.85421693  0.39982414  0.50183976    -0.13100
Br1937     Br  0.88704028  0.41072469  0.44920786    -0.05200
Br1938     Br  0.94273270  0.44142670  0.54798272     0.00400
Br1939     Br  0.87041147  0.31826677  0.49764850     0.00900
Br1940     Br  0.84770387  0.43302240  0.50283716    -0.03500
Br1941     Br  0.93262846  0.44768487  0.44692794     0.01000
Br1942     Br  0.89983908  0.40138083  0.54965890    -0.02800
Br1943     Br  0.91458956  0.35702885  0.49723384    -0.03700
Br1944     Br  0.80359560  0.39418869  0.50442080     0.00300
C1945       C  0.93967832  0.56404848  0.50006750     0.01700
C1946       C  0.93027783  0.57193508  0.52158568     0.04500
C1947       C  0.91284652  0.58941463  0.52173762    -0.11500
C1948       C  0.90467375  0.59890531  0.50036054     0.23800
C1949       C  0.91461741  0.59151522  0.47888922    -0.12100
C1950       C  0.93211173  0.57411964  0.47874930     0.05200
C1951       C  0.88452351  0.61541166  0.50036186     0.27600
C1952       C  0.86146961  0.60656163  0.49825085    -0.12800
C1953       C  0.84220788  0.62200652  0.49826117     0.05700
C1954       C  0.84592574  0.64636925  0.50033668    -0.08800
C1955       C  0.86897385  0.65522039  0.50261575     0.06600
C1956       C  0.88826492  0.63975695  0.50260068    -0.13100
Br1957     Br  0.90384897  0.60491629  0.44968411    -0.05200
Br1958     Br  0.94106687  0.55841412  0.55072587     0.00400
Br1959     Br  0.81065964  0.60981930  0.49573200     0.00900
Br1960     Br  0.91983717  0.65176996  0.50556133    -0.03500
Br1961     Br  0.94535379  0.56349440  0.44936158     0.01000
Br1962     Br  0.89973563  0.60010451  0.55113156    -0.02800
Br1963     Br  0.85641725  0.57318077  0.49538101    -0.03700
Br1964     Br  0.87401148  0.68856322  0.50554344     0.00300
C1965       C  0.49434772  0.14289106  0.64898446     0.01700
C1966       C  0.49806489  0.14800391  0.62501791     0.04500
C1967       C  0.49804934  0.12981636  0.60823802    -0.11500
C1968       C  0.49379976  0.10648229  0.61527895     0.23800
C1969       C  0.48941905  0.10143903  0.63916451    -0.12100
C1970       C  0.48971722  0.11961606  0.65599082     0.05200
C1971       C  0.49362083  0.08738507  0.59743239     0.27600
C1972       C  0.47344831  0.08354424  0.58352377    -0.12800
C1973       C  0.47361611  0.06625361  0.56584020     0.05700
C1974       C  0.49390152  0.05261365  0.56206229    -0.08800
C1975       C  0.51389767  0.05602333  0.57637318     0.06600
C1976       C  0.51380586  0.07349499  0.59391446    -0.13100
Br1977     Br  0.48282406  0.06962823  0.64868310    -0.05200
Br1978     Br  0.50228440  0.18008093  0.61511692     0.00400
Br1979     Br  0.44596864  0.06096636  0.54687605     0.00900
Br1980     Br  0.54144628  0.07878956  0.61288512    -0.03500
Br1981     Br  0.48357503  0.11276429  0.68864413     0.01000
Br1982     Br  0.50384873  0.13676376  0.57552083    -0.02800
Br1983     Br  0.44561536  0.10211168  0.58870170    -0.03700
Br1984     Br  0.54146690  0.03688921  0.57175595     0.00300
C1985       C  0.49523014  0.05551483  0.43888307     0.01700
C1986       C  0.47436856  0.06513870  0.42968381     0.04500
C1987       C  0.47551850  0.08246152  0.41210102    -0.11500
C1988       C  0.49753074  0.09083943  0.40437287     0.23800
C1989       C  0.51836978  0.08099895  0.41338682    -0.12100
C1990       C  0.51720356  0.06302688  0.43025804     0.05200
C1991       C  0.49881456  0.11045056  0.38727233     0.27600
C1992       C  0.50208500  0.10586223  0.36312363    -0.12800
C1993       C  0.50365301  0.12459137  0.34704801     0.05700
C1994       C  0.50154896  0.14791582  0.35504377    -0.08800
C1995       C  0.49837690  0.15246607  0.37921204     0.06600
C1996       C  0.49710866  0.13378043  0.39530914    -0.13100
Br1997     Br  0.54848919  0.09230098  0.40266523    -0.05200
Br1998     Br  0.44431436  0.05437554  0.44111554     0.00400
Br1999     Br  0.50858773  0.11839078  0.31406998     0.00900
Br2000     Br  0.49300827  0.14002762  0.42843941    -0.03500
Br2001     Br  0.54564179  0.04836554  0.44139894     0.01000
Br2002     Br  0.44705207  0.09448528  0.39822026    -0.02800
Br2003     Br  0.50402114  0.07386663  0.35219281    -0.03700
Br2004     Br  0.49580353  0.18437672  0.39021746     0.00300
C2005       C  0.49874822  0.93370476  0.43636918     0.01700
C2006       C  0.47763362  0.92307670  0.42897494     0.04500
C2007       C  0.47818197  0.90479943  0.41240724    -0.11500
C2008       C  0.49990388  0.89659171  0.40386371     0.23800
C2009       C  0.52101887  0.90741890  0.41103794    -0.12100
C2010       C  0.52038638  0.92632646  0.42690214     0.05200
C2011       C  0.50047436  0.87665713  0.38721007     0.27600
C2012       C  0.49868494  0.85347842  0.39566306    -0.12800
C2013       C  0.49895094  0.83457891  0.37976599     0.05700
C2014       C  0.50092375  0.83888412  0.35546444    -0.08800
C2015       C  0.50280602  0.86202021  0.34702741     0.06600
C2016       C  0.50248030  0.88091856  0.36289033    -0.13100
Br2017     Br  0.55075044  0.89603807  0.39941470    -0.05200
Br2018     Br  0.44802962  0.93352584  0.44175062     0.00400
Br2019     Br  0.49690994  0.80277242  0.39116286     0.00900
Br2020     Br  0.50433875  0.91269876  0.35138257    -0.03500
Br2021     Br  0.54903718  0.94214214  0.43584309     0.01000
Br2022     Br  0.44924151  0.89101004  0.40126080    -0.02800
Br2023     Br  0.49572243  0.84772827  0.42898679    -0.03700
Br2024     Br  0.50560765  0.86772838  0.31368707     0.00300
C2025       C  0.49901682  0.84118468  0.64455976     0.01700
C2026       C  0.50739033  0.83603709  0.62177225     0.04500
C2027       C  0.50686700  0.85332307  0.60419134    -0.11500
C2028       C  0.49839812  0.87588659  0.60948042     0.23800
C2029       C  0.49010475  0.88111947  0.63221774    -0.12100
C2030       C  0.49020149  0.86372293  0.64970822     0.05200
C2031       C  0.49837871  0.89428147  0.59121315     0.27600
C2032       C  0.51829599  0.90868135  0.58825276    -0.12800
C2033       C  0.51795380  0.92678275  0.57152416     0.05700
C2034       C  0.49754365  0.93071744  0.55807020    -0.08800
C2035       C  0.47770253  0.91616987  0.56089577     0.06600
C2036       C  0.47824172  0.89773908  0.57724922    -0.13100
Br2037     Br  0.47899027  0.91231060  0.63933619    -0.05200
Br2038     Br  0.51919894  0.80521214  0.61443782     0.00400
Br2039     Br  0.54545811  0.94603068  0.56673231     0.00900
Br2040     Br  0.45158194  0.87702661  0.58047095    -0.03500
Br2041     Br  0.47887241  0.87101670  0.68085372     0.01000
Br2042     Br  0.51763095  0.84623033  0.57278323    -0.02800
Br2043     Br  0.54596463  0.90349319  0.60716777    -0.03700
Br2044     Br  0.44972298  0.92181461  0.54258779     0.00300
loop_ 
_geom_bond_atom_site_label_1 
_geom_bond_atom_site_label_2 
_geom_bond_distance 
_geom_bond_site_symmetry_2 
_ccdc_geom_bond_type 
N1            C6   1.354       .  A
N1            C5   1.355       .  A
N1           H33   1.036       .  S
N2            C9   1.350   1_565  A
N2           C10   1.350       .  A
N3            C8   1.351       .  A
N3            C7   1.351       .  A
N3           H34   1.037       .  S
N4           C11   1.350   1_565  A
N4           C12   1.351       .  A
C5           C13   1.387       .  A
C5           C21   1.419       .  A
C6           C22   1.419       .  A
C6           C14   1.387       .  A
C7           C15   1.387       .  A
C7           C24   1.412       .  A
C8           C23   1.413       .  A
C8           C16   1.388       .  A
C9           C21   1.412       .  A
C9           C17   1.386       .  A
C10          C24   1.411       .  A
C10          C18   1.386       .  A
C11          C19   1.387       .  A
C11          C22   1.413       .  A
C12          C20   1.385       .  A
C12          C23   1.411       .  A
C13          C14   1.376       .  A
C13          H25   1.082       .  S
C14          H26   1.082       .  S
C15          C16   1.373       .  A
C15          H27   1.082       .  S
C16          H28   1.082       .  S
C17          C18   1.372   1_545  A
C17          H29   1.082       .  S
C18          H30   1.082       .  S
C19          C20   1.371   1_545  A
C19          H31   1.082       .  S
C20          H32   1.082       .  S
C21        C1974   1.491       .  S
C22        C1985   1.488       .  S
C23        C2005   1.483       .  S
C24        C2034   1.483       .  S
N35          C40   1.350       .  A
N35          C39   1.352       .  A
N35          H67   1.036       .  S
N36          C43   1.351   1_655  A
N36          C44   1.349       .  A
N37          C42   1.354       .  A
N37          C41   1.352       .  A
N37          H68   1.035       .  S
N38          C45   1.349   1_655  A
N38          C46   1.350       .  A
C39          C47   1.387       .  A
C39          C55   1.413       .  A
C40          C56   1.413       .  A
C40          C48   1.387       .  A
C41          C49   1.388       .  A
C41          C58   1.417       .  A
C42          C57   1.416       .  A
C42          C50   1.386       .  A
C43          C55   1.411       .  A
C43          C51   1.385       .  A
C44          C58   1.413       .  A
C44          C52   1.388       .  A
C45          C53   1.387       .  A
C45          C56   1.411       .  A
C46          C54   1.386       .  A
C46          C57   1.410       .  A
C47          C48   1.375       .  A
C47          H59   1.082       .  S
C48          H60   1.082       .  S
C49          C50   1.373       .  A
C49          H61   1.082       .  S
C50          H62   1.082       .  S
C51          C52   1.371   1_455  A
C51          H63   1.082       .  S
C52          H64   1.082       .  S
C53          C54   1.371   1_455  A
C53          H65   1.082       .  S
C54          H66   1.082       .  S
C55        C1914   1.486       .  S
C56        C1885   1.480       .  S
C57        C1945   1.488       .  S
C58        C1925   1.483       .  S
N69          C74   1.356       .  A
N69          C73   1.353       .  A
N69         H101   1.038       .  S
N70          C77   1.351   1_554  A
N70          C78   1.354       .  A
N71          C76   1.351       .  A
N71          C75   1.352       .  A
N71         H102   1.038       .  S
N72          C79   1.352   1_554  A
N72          C80   1.351       .  A
C73          C81   1.388       .  A
C73          C89   1.418       .  A
C74          C90   1.419       .  A
C74          C82   1.387       .  A
C75          C83   1.386       .  A
C75          C92   1.412       .  A
C76          C91   1.413       .  A
C76          C84   1.388       .  A
C77          C89   1.416       .  A
C77          C85   1.388       .  A
C78          C92   1.414       .  A
C78          C86   1.385       .  A
C79          C87   1.386       .  A
C79          C90   1.415       .  A
C80          C88   1.386       .  A
C80          C91   1.414       .  A
C81          C82   1.378       .  A
C81          H93   1.082       .  S
C82          H94   1.082       .  S
C83          C84   1.375       .  A
C83          H95   1.082       .  S
C84          H96   1.082       .  S
C85          C86   1.374   1_556  A
C85          H97   1.082       .  S
C86          H98   1.082       .  S
C87          C88   1.375   1_556  A
C87          H99   1.082       .  S
C88         H100   1.082       .  S
C89        C1845   1.489       .  S
C90        C1865   1.500       .  S
C91        C1825   1.485       .  S
C92        C1805   1.492       .  S
N103        C108   1.354   1_554  A
N103        C107   1.358       .  A
N103        H135   1.024       .  S
N104        C111   1.351       .  A
N104        C112   1.350       .  A
N105        C110   1.354   1_654  A
N105        C109   1.351   1_655  A
N105        H136   1.026       .  S
N106        C113   1.351       .  A
N106        C114   1.354       .  A
C107        C115   1.386       .  A
C107        C123   1.420       .  A
C108        C124   1.420       .  A
C108        C116   1.388       .  A
C109        C117   1.388       .  A
C109        C126   1.414   1_455  A
C110        C125   1.414   1_455  A
C110        C118   1.386       .  A
C111        C123   1.413       .  A
C111        C119   1.386       .  A
C112        C126   1.412       .  A
C112        C120   1.387       .  A
C113        C121   1.388       .  A
C113        C124   1.416       .  A
C114        C122   1.385       .  A
C114        C125   1.415       .  A
C115        C116   1.378   1_554  A
C115        H127   1.082   1_655  S
C116        H128   1.082   1_655  S
C117        C118   1.375   1_554  A
C117        H129   1.082       .  S
C118        H130   1.082       .  S
C119        C120   1.372       .  A
C119        H131   1.082       .  S
C120        H132   1.082       .  S
C121        C122   1.373       .  A
C121        H133   1.082       .  S
C122        H134   1.082       .  S
C123       C1754   1.495       .  S
C124       C1725   1.488       .  S
C125       C1765   1.494   1_655  S
C126       C1794   1.482       .  S
N137        C142   1.353   1_564  A
N137        C141   1.353   1_554  A
N137        H169   1.035       .  S
N138        C145   1.350       .  A
N138        C146   1.350       .  A
N139        C144   1.352       .  A
N139        C143   1.354   1_545  A
N139        H170   1.037   1_556  S
N140        C147   1.352       .  A
N140        C148   1.352       .  A
C141        C149   1.388       .  A
C141        C157   1.418   1_556  A
C142        C158   1.416       .  A
C142        C150   1.387       .  A
C143        C151   1.386       .  A
C143        C160   1.415       .  A
C144        C159   1.416       .  A
C144        C152   1.388       .  A
C145        C157   1.411       .  A
C145        C153   1.386       .  A
C146        C160   1.412   1_554  A
C146        C154   1.387       .  A
C147        C155   1.387   1_556  A
C147        C158   1.416       .  A
C148        C156   1.386   1_556  A
C148        C159   1.415       .  A
C149        C150   1.376   1_565  A
C149        H161   1.082       .  S
C150        H162   1.082       .  S
C151        C152   1.375   1_565  A
C151        H163   1.082       .  S
C152        H164   1.082       .  S
C153        C154   1.370       .  A
C153        H165   1.082       .  S
C154        H166   1.082       .  S
C155        C156   1.373       .  A
C155        H167   1.082       .  S
C156        H168   1.082       .  S
C157       C1654   1.485       .  S
C158       C1674   1.490       .  S
C159       C1714   1.488       .  S
C160       C1694   1.489       .  S
Zn171       O175   1.955       .  S
Zn171       O176   2.024       .  S
Zn171       O180   2.013       .  S
Zn171       O187   2.011       .  S
Zn172       O175   1.964       .  S
Zn172       O177   2.022       .  S
Zn172       O179   2.045       .  S
Zn172       O183   2.025       .  S
Zn173       O175   1.969       .  S
Zn173       O178   2.025       .  S
Zn173       O181   2.024       .  S
Zn173       O184   2.032       .  S
Zn174       O175   1.960       .  S
Zn174       O182   2.023       .  S
Zn174       O185   2.015       .  S
Zn174       O186   2.018       .  S
O176        C188   1.273       .  A
O177        C189   1.275       .  A
O178        C190   1.274       .  A
O179        C188   1.276       .  A
O180        C190   1.273       .  A
O181        C189   1.275       .  A
O182        C191   1.273       .  A
O183        C192   1.275       .  A
O184        C191   1.274       .  A
O185        C192   1.273       .  A
O186        C193   1.273       .  A
O187        C193   1.272       .  A
C188       C1605   1.498       .  S
C189       C1565   1.481       .  S
C190       C1525   1.483       .  S
C191       C1545   1.484       .  S
C192       C1594   1.484       .  S
C193       C1625   1.484       .  S
Zn194       O198   1.969       .  S
Zn194       O199   2.019       .  S
Zn194       O203   2.029       .  S
Zn194       O210   2.029       .  S
Zn195       O198   1.969       .  S
Zn195       O200   2.034       .  S
Zn195       O202   2.035       .  S
Zn195       O206   2.042       .  S
Zn196       O198   1.970       .  S
Zn196       O201   2.036       .  S
Zn196       O204   2.025       .  S
Zn196       O207   2.032       .  S
Zn197       O198   1.965       .  S
Zn197       O205   2.014       .  S
Zn197       O208   2.035       .  S
Zn197       O209   2.012       .  S
O199        C211   1.273       .  A
O200        C212   1.276       .  A
O201        C213   1.275       .  A
O202        C211   1.276       .  A
O203        C213   1.275       .  A
O204        C212   1.274       .  A
O205        C214   1.272       .  A
O206        C215   1.276       .  A
O207        C214   1.275       .  A
O208        C215   1.275       .  A
O209        C216   1.273       .  A
O210        C216   1.275       .  A
C211       C1485   1.489       .  S
C212       C1425   1.477       .  S
C213       C1465   1.485       .  S
C214       C1405   1.477       .  S
C215       C1505   1.496       .  S
C216       C1454   1.491       .  S
Zn217       O221   1.967       .  S
Zn217       O222   2.030       .  S
Zn217       O226   2.024       .  S
Zn217       O233   2.021       .  S
Zn218       O221   1.962       .  S
Zn218       O223   2.008       .  S
Zn218       O225   2.023       .  S
Zn218       O229   2.016       .  S
Zn219       O221   1.970       .  S
Zn219       O224   2.028       .  S
Zn219       O227   2.028       .  S
Zn219       O230   2.044       .  S
Zn220       O221   1.965       .  S
Zn220       O228   2.039       .  S
Zn220       O231   2.034       .  S
Zn220       O232   2.025       .  S
O222        C234   1.274       .  A
O223        C235   1.272       .  A
O224        C236   1.274       .  A
O225        C234   1.274       .  A
O226        C236   1.275       .  A
O227        C235   1.275       .  A
O228        C237   1.276       .  A
O229        C238   1.273       .  A
O230        C237   1.277       .  A
O231        C238   1.275       .  A
O232        C239   1.275       .  A
O233        C239   1.274       .  A
C234       C1385   1.488       .  S
C235       C1305   1.476       .  S
C236       C1285   1.484       .  S
C237       C1354   1.497       .  S
C238       C1365   1.493       .  S
C239       C1334   1.487       .  S
Zn240       O244   1.959       .  S
Zn240       O245   2.010       .  S
Zn240       O249   2.009       .  S
Zn240       O256   2.024       .  S
Zn241       O244   1.971       .  S
Zn241       O246   2.039       .  S
Zn241       O248   2.042       .  S
Zn241       O252   2.035       .  S
Zn242       O244   1.971       .  S
Zn242       O247   2.031       .  S
Zn242       O250   2.025       .  S
Zn242       O253   2.027       .  S
Zn243       O244   1.965       .  S
Zn243       O251   2.011       .  S
Zn243       O254   2.026       .  S
Zn243       O255   2.031       .  S
O245        C257   1.272       .  A
O246        C258   1.276       .  A
O247        C259   1.274       .  A
O248        C257   1.276       .  A
O249        C259   1.271       .  A
O250        C258   1.274       .  A
O251        C260   1.272       .  A
O252        C261   1.276       .  A
O253        C260   1.275       .  A
O254        C261   1.275       .  A
O255        C262   1.275       .  A
O256        C262   1.274       .  A
C257       C1185   1.494       .  S
C258       C1214   1.480       .  S
C259       C1265   1.478       .  S
C260       C1234   1.480       .  S
C261       C1245   1.485       .  S
C262       C1165   1.491       .  S
Zn263       O267   1.960       .  S
Zn263       O268   2.024       .  S
Zn263       O272   2.017       .  S
Zn263       O279   2.011       .  S
Zn264       O267   1.956       .  S
Zn264       O269   2.008       .  S
Zn264       O271   2.012       .  S
Zn264       O275   2.005       .  S
Zn265       O267   1.959       .  S
Zn265       O270   2.023       .  S
Zn265       O273   2.011       .  S
Zn265       O276   2.018       .  S
Zn266       O267   1.964       .  S
Zn266       O274   2.030       .  S
Zn266       O277   2.026       .  S
Zn266       O278   2.021       .  S
O268        C280   1.273       .  A
O269        C281   1.272       .  A
O270        C282   1.273       .  A
O271        C280   1.272       .  A
O272        C282   1.273       .  A
O273        C281   1.273       .  A
O274        C283   1.275       .  A
O275        C284   1.272       .  A
O276        C283   1.273       .  A
O277        C284   1.274       .  A
O278        C285   1.275       .  A
O279        C285   1.273       .  A
C280       C1085   1.486       .  S
C281       C1114   1.474       .  S
C282       C1065   1.474       .  S
C283       C1045   1.482       .  S
C284       C1125   1.476       .  S
C285       C1145   1.480       .  S
Zn286       O290   1.964       .  S
Zn286       O291   2.021       .  S
Zn286       O295   2.017       .  S
Zn286       O302   2.025       .  S
Zn287       O290   1.948       .  S
Zn287       O292   2.003       .  S
Zn287       O294   2.028       .  S
Zn287       O298   2.004       .  S
Zn288       O290   1.968       .  S
Zn288       O293   2.022       .  S
Zn288       O296   2.043       .  S
Zn288       O299   2.031       .  S
Zn289       O290   1.960       .  S
Zn289       O297   2.015       .  S
Zn289       O300   2.033       .  S
Zn289       O301   2.005       .  S
O291        C303   1.274       .  A
O292        C304   1.270       .  A
O293        C305   1.273       .  A
O294        C303   1.274       .  A
O295        C305   1.273       .  A
O296        C304   1.275       .  A
O297        C306   1.274       .  A
O298        C307   1.269       .  A
O299        C306   1.276       .  A
O300        C307   1.272       .  A
O301        C308   1.271       .  A
O302        C308   1.273       .  A
C303       C1005   1.474       .  S
C304        C985   1.500       .  S
C305        C925   1.472       .  S
C306       C1025   1.489       .  S
C307        C965   1.510       .  S
C308        C954   1.481       .  S
Zn309       O313   1.964       .  S
Zn309       O314   2.030       .  S
Zn309       O318   2.030       .  S
Zn309       O325   2.024       .  S
Zn310       O313   1.972       .  S
Zn310       O315   2.020       .  S
Zn310       O317   2.041       .  S
Zn310       O321   2.018       .  S
Zn311       O313   1.970       .  S
Zn311       O316   2.028       .  S
Zn311       O319   2.023       .  S
Zn311       O322   2.043       .  S
Zn312       O313   1.966       .  S
Zn312       O320   2.034       .  S
Zn312       O323   2.019       .  S
Zn312       O324   2.025       .  S
O314        C326   1.275       .  A
O315        C327   1.274       .  A
O316        C328   1.276       .  A
O317        C326   1.274       .  A
O318        C328   1.275       .  A
O319        C327   1.274       .  A
O320        C329   1.275       .  A
O321        C330   1.274       .  A
O322        C329   1.275       .  A
O323        C330   1.274       .  A
O324        C331   1.275       .  A
O325        C331   1.275       .  A
C326        C894   1.487       .  S
C327        C805   1.478       .  S
C328        C865   1.489       .  S
C329        C905   1.497       .  S
C330        C825   1.478       .  S
C331        C845   1.481       .  S
N332        C337   1.353   1_565  A
N332        C336   1.356   1_465  A
N332        H364   1.030       .  S
N333        C340   1.353       .  A
N333        C341   1.351       .  A
N334        C339   1.355   1_565  A
N334        C338   1.353   1_455  A
N334        H365   1.028       .  S
N335        C342   1.351   1_545  A
N335        C343   1.353   1_545  A
C336        C344   1.386       .  A
C336        C352   1.420   1_545  A
C337        C353   1.419       .  A
C337        C345   1.387       .  A
C338        C346   1.389   1_565  A
C338        C355   1.420       .  A
C339        C354   1.419   1_545  A
C339        C347   1.387       .  A
C340        C352   1.415       .  A
C340        C348   1.386       .  A
C341        C355   1.417       .  A
C341        C349   1.388       .  A
C342        C350   1.388       .  A
C342        C353   1.416   1_565  A
C343        C351   1.385       .  A
C343        C354   1.415       .  A
C344        C345   1.379   1_655  A
C344        H356   1.082       .  S
C345        H357   1.082       .  S
C346        C347   1.375   1_655  A
C346        H358   1.082       .  S
C347        H359   1.082       .  S
C348        C349   1.369       .  A
C348        H360   1.082       .  S
C349        H361   1.082       .  S
C350        C351   1.370       .  A
C350        H362   1.082       .  S
C351        H363   1.082       .  S
C352        C734   1.497       .  S
C353        C745   1.489   1_545  S
C354        C794   1.492   1_565  S
C355        C774   1.487       .  S
C366        C367   1.408   1_565  A
C366        C371   1.403       .  A
C366       C1034   1.481       .  S
C367        C368   1.408       .  A
C367        H372   1.083       .  S
C368        C369   1.403       .  A
C368        C714   1.484       .  S
C369        C370   1.400   1_545  A
C369        H373   1.084       .  S
C370        C371   1.398       .  A
C370        C754   1.478       .  S
C371        H374   1.084       .  S
Zn375       O379   1.973       .  S
Zn375       O380   2.044       .  S
Zn375       O384   2.077       .  S
Zn375       O391   2.059       .  S
Zn376       O379   1.979       .  S
Zn376       O381   2.040       .  S
Zn376       O383   2.044       .  S
Zn376       O387   2.044       .  S
Zn377       O379   1.962       .  S
Zn377       O382   2.026       .  S
Zn377       O385   2.014       .  S
Zn377       O388   2.026       .  S
Zn378       O379   1.962       .  S
Zn378       O386   2.019       .  S
Zn378       O389   2.025       .  S
Zn378       O390   2.020       .  S
O380        C392   1.279       .  A
O381        C393   1.276       .  A
O382        C394   1.275       .  A
O383        C392   1.276       .  A
O384        C394   1.281       .  A
O385        C393   1.273       .  A
O386        C395   1.273       .  A
O387        C396   1.276       .  A
O388        C395   1.273       .  A
O389        C396   1.273       .  A
O390        C397   1.273       .  A
O391        C397   1.277       .  A
C392        C674   1.498       .  S
C393        C705   1.480       .  S
C394        C654   1.500       .  S
C395        C605   1.490       .  S
C396        C685   1.480       .  S
C397        C634   1.508       .  S
C398        C399   1.409   1_655  A
C398        C403   1.406       .  A
C398        C914   1.489       .  S
C399        C400   1.409       .  A
C399        H404   1.083       .  S
C400        C401   1.403       .  A
C400        C694   1.485       .  S
C401        C402   1.401   1_455  A
C401        H405   1.084       .  S
C402        C403   1.402       .  A
C402       C1745   1.481       .  S
C403        H406   1.084       .  S
C407        C408   1.407       .  A
C407        C412   1.409   1_554  A
C407        C665   1.490       .  S
C408        C409   1.402       .  A
C408        H413   1.084       .  S
C409        C410   1.400   1_554  A
C409       C1665   1.478       .  S
C410        C411   1.401       .  A
C410        H414   1.084       .  S
C411        C412   1.408       .  A
C411       C1274   1.482       .  S
C412        H415   1.083       .  S
C416        C417   1.404       .  A
C416        C421   1.411       .  A
C416        C645   1.494       .  S
C417        C418   1.401       .  A
C417        H422   1.084       .  S
C418        C419   1.403       .  A
C418       C1994   1.480       .  S
C419        C420   1.405       .  A
C419        H423   1.084       .  S
C420        C421   1.409       .  A
C420        C885   1.488       .  S
C421        H424   1.083       .  S
C425        C426   1.408       .  A
C425        C430   1.408   1_545  A
C425        C874   1.487       .  S
C426        C427   1.404   1_545  A
C426        H431   1.084       .  S
C427        C428   1.397       .  A
C427        C725   1.483       .  S
C428        C429   1.403       .  A
C428        H432   1.085       .  S
C429        C430   1.408       .  A
C429       C1134   1.484       .  S
C430        H433   1.083       .  S
C434        C435   1.407       .  A
C434        C439   1.411       .  A
C434        C854   1.494       .  S
C435        C436   1.401   1_554  A
C435        H440   1.084       .  S
C436        C437   1.399       .  A
C436       C1705   1.478       .  S
C437        C438   1.402       .  A
C437        H441   1.084       .  S
C438        C439   1.405   1_556  A
C438       C1374   1.481       .  S
C439        H442   1.083       .  S
C443        C444   1.403       .  A
C443        C448   1.397       .  A
C443       C1074   1.472       .  S
C444        C445   1.405       .  A
C444        H449   1.084       .  S
C445        C446   1.407       .  A
C445        C834   1.480       .  S
C446        C447   1.403       .  A
C446        H450   1.084       .  S
C447        C448   1.396       .  A
C447       C1834   1.476       .  S
C448        H451   1.085       .  S
C452        C453   1.409       .  A
C452        C457   1.399       .  A
C452        C814   1.482       .  S
C453        C454   1.410       .  A
C453        H458   1.083       .  S
C454        C455   1.403       .  A
C454       C1294   1.485       .  S
C455        C456   1.400       .  A
C455        H459   1.084       .  S
C456        C457   1.396       .  A
C456       C1934   1.471       .  S
C457        H460   1.085       .  S
C461        C462   1.410       .  A
C461        C466   1.403       .  A
C461        C625   1.487       .  S
C462        C463   1.410       .  A
C462        H467   1.083       .  S
C463        C464   1.403       .  A
C463       C1014   1.485       .  S
C464        C465   1.399       .  A
C464        H468   1.084       .  S
C465        C466   1.401       .  A
C465       C1814   1.478       .  S
C466        H469   1.084       .  S
C470        C471   1.401       .  A
C470        C475   1.404   1_455  A
C470        C994   1.477       .  S
C471        C472   1.400       .  A
C471        H476   1.084       .  S
C472        C473   1.400   1_455  A
C472       C1785   1.476       .  S
C473        C474   1.402       .  A
C473        H477   1.084       .  S
C474        C475   1.405       .  A
C474       C1154   1.478       .  S
C475        H478   1.084       .  S
C479        C480   1.400       .  A
C479        C484   1.407   1_554  A
C479        C974   1.479       .  S
C480        C481   1.395       .  A
C480        H485   1.085       .  S
C481        C482   1.399   1_554  A
C481       C1645   1.472       .  S
C482        C483   1.404       .  A
C482        H486   1.084       .  S
C483        C484   1.411       .  A
C483       C1494   1.486       .  S
C484        H487   1.083       .  S
C488        C489   1.404       .  A
C488        C493   1.399       .  A
C488       C1105   1.473       .  S
C489        C490   1.406       .  A
C489        H494   1.084       .  S
C490        C491   1.404       .  A
C490        C945   1.482       .  S
C491        C492   1.399       .  A
C491        H495   1.084       .  S
C492        C493   1.396       .  A
C492       C2014   1.471       .  S
C493        H496   1.084       .  S
C497        C498   1.399       .  A
C497        C502   1.407       .  A
C497        C934   1.478       .  S
C498        C499   1.397       .  A
C498        H503   1.084       .  S
C499        C500   1.397       .  A
C499       C1894   1.470       .  S
C500        C501   1.400       .  A
C500        H504   1.084       .  S
C501        C502   1.408       .  A
C501       C1414   1.478       .  S
C502        H505   1.083       .  S
C506        C507   1.407   1_554  A
C506        C511   1.403       .  A
C506       C1094   1.485       .  S
C507        C508   1.406       .  A
C507        H512   1.083   1_556  S
C508        C509   1.406       .  A
C508       C1585   1.485       .  S
C509        C510   1.404       .  A
C509        H513   1.084       .  S
C510        C511   1.404   1_556  A
C510       C1685   1.489       .  S
C511        H514   1.084       .  S
C515        C516   1.402       .  A
C515        C520   1.409       .  A
C515        C614   1.482       .  S
C516        C517   1.398       .  A
C516        H521   1.084       .  S
C517        C518   1.399       .  A
C517       C1905   1.474       .  S
C518        C519   1.403       .  A
C518        H522   1.084       .  S
C519        C520   1.410       .  A
C519       C1254   1.487       .  S
C520        H523   1.083       .  S
C524        C525   1.404       .  A
C524        C529   1.408       .  A
C524       C1394   1.486       .  S
C525        C526   1.402       .  A
C525        H530   1.084       .  S
C526        C527   1.399   1_655  A
C526       C1734   1.478       .  S
C527        C528   1.404       .  A
C527        H531   1.084       .  S
C528        C529   1.409   1_455  A
C528       C1225   1.486       .  S
C529        H532   1.083       .  S
C533        C534   1.404       .  A
C533        C538   1.412   1_565  A
C533       C1514   1.490       .  S
C534        C535   1.400   1_565  A
C534        H539   1.084       .  S
C535        C536   1.399       .  A
C535        C785   1.478       .  S
C536        C537   1.402       .  A
C536        H540   1.084       .  S
C537        C538   1.411       .  A
C537       C1205   1.485       .  S
C538        H541   1.083       .  S
C542        C543   1.403       .  A
C542        C547   1.409       .  A
C542       C1194   1.486       .  S
C543        C544   1.400       .  A
C543        H548   1.084       .  S
C544        C545   1.404       .  A
C544       C1965   1.482       .  S
C545        C546   1.407       .  A
C545        H549   1.084       .  S
C546        C547   1.410       .  A
C546       C1345   1.492       .  S
C547        H550   1.083       .  S
C551        C552   1.410       .  A
C551        C556   1.405       .  A
C551       C1174   1.488       .  S
C552        C553   1.409       .  A
C552        H557   1.083       .  S
C553        C554   1.401       .  A
C553       C1474   1.484       .  S
C554        C555   1.399       .  A
C554        H558   1.084       .  S
C555        C556   1.400       .  A
C555       C1854   1.476       .  S
C556        H559   1.084       .  S
C560        C561   1.403       .  A
C560        C565   1.414       .  A
C560       C1325   1.490       .  S
C561        C562   1.398       .  A
C561        H566   1.084       .  S
C562        C563   1.396   1_545  A
C562        C765   1.471       .  S
C563        C564   1.400       .  A
C563        H567   1.085       .  S
C564        C565   1.413   1_565  A
C564       C1614   1.488       .  S
C565        H568   1.083       .  S
C569        C570   1.405       .  A
C569        C574   1.405       .  A
C569       C1445   1.481       .  S
C570        C571   1.403       .  A
C570        H575   1.084       .  S
C571        C572   1.401   1_455  A
C571       C1774   1.483       .  S
C572        C573   1.403       .  A
C572        H576   1.084       .  S
C573        C574   1.404   1_655  A
C573       C1634   1.480       .  S
C574        H577   1.084       .  S
C578        C579   1.401       .  A
C578        C583   1.404       .  A
C578       C1574   1.477       .  S
C579        C580   1.399       .  A
C579        H584   1.084       .  S
C580        C581   1.400       .  A
C580       C2025   1.476       .  S
C581        C582   1.402       .  A
C581        H585   1.084       .  S
C582        C583   1.403       .  A
C582       C1434   1.476       .  S
C583        H586   1.084       .  S
C587        C588   1.407       .  A
C587        C592   1.404       .  A
C587       C1554   1.484       .  S
C588        C589   1.408       .  A
C588        H593   1.083       .  S
C589        C590   1.405       .  A
C589       C1314   1.485       .  S
C590        C591   1.402       .  A
C590        H594   1.084       .  S
C591        C592   1.403       .  A
C591       C1874   1.485       .  S
C592        H595   1.084       .  S
C596        C597   1.406       .  A
C596        C601   1.407       .  A
C596       C1534   1.488       .  S
C597        C598   1.402       .  A
C597        H602   1.084       .  S
C598        C599   1.401       .  A
C598       C1954   1.480       .  S
C599        C600   1.403       .  A
C599        H603   1.084       .  S
C600        C601   1.407       .  A
C600       C1054   1.483       .  S
C601        H604   1.084       .  S
C605        C606   1.417       .  A
C605        C610   1.418       .  A
C606        C607   1.407       .  A
C606       Br618   1.933       .  S
C607        C608   1.407       .  A
C607       Br622   1.932       .  S
C608        C609   1.408       .  A
C608        C611   1.487       .  S
C609        C610   1.411       .  A
C609       Br617   1.929       .  S
C610       Br621   1.932       .  S
C611        C612   1.410       .  A
C611        C616   1.409       .  A
C612        C613   1.408       .  A
C612       Br623   1.930       .  S
C613        C614   1.411       .  A
C613       Br619   1.929       .  S
C614        C615   1.411       .  A
C615        C616   1.409       .  A
C615       Br624   1.928       .  S
C616       Br620   1.929       .  S
C625        C626   1.410       .  A
C625        C630   1.411       .  A
C626        C627   1.412       .  A
C626       Br638   1.929       .  S
C627        C628   1.412       .  A
C627       Br642   1.928       .  S
C628        C629   1.411       .  A
C628        C631   1.495       .  S
C629        C630   1.410       .  A
C629       Br637   1.930       .  S
C630       Br641   1.929       .  S
C631        C632   1.408       .  A
C631        C636   1.406       .  A
C632        C633   1.414       .  A
C632       Br643   1.932       .  S
C633        C634   1.424       .  A
C633       Br639   1.931       .  S
C634        C635   1.426       .  A
C635        C636   1.412       .  A
C635       Br644   1.936       .  S
C636       Br640   1.933       .  S
C645        C646   1.415       .  A
C645        C650   1.413       .  A
C646        C647   1.412       .  A
C646       Br658   1.931       .  S
C647        C648   1.410       .  A
C647       Br662   1.929       .  S
C648        C649   1.410       .  A
C648        C651   1.496       .  S
C649        C650   1.412       .  A
C649       Br657   1.929       .  S
C650       Br661   1.929       .  S
C651        C652   1.407       .  A
C651        C656   1.410       .  A
C652        C653   1.412       .  A
C652       Br663   1.932       .  S
C653        C654   1.419       .  A
C653       Br659   1.928       .  S
C654        C655   1.417       .  A
C655        C656   1.415       .  A
C655       Br664   1.927       .  S
C656       Br660   1.929       .  S
C665        C666   1.411       .  A
C665        C670   1.413       .  A
C666        C667   1.411       .  A
C666       Br678   1.930       .  S
C667        C668   1.412       .  A
C667       Br682   1.929       .  S
C668        C669   1.411       .  A
C668        C671   1.496       .  S
C669        C670   1.411       .  A
C669       Br677   1.929       .  S
C670       Br681   1.930       .  S
C671        C672   1.410       .  A
C671        C676   1.410       .  A
C672        C673   1.409       .  A
C672       Br683   1.933       .  S
C673        C674   1.415       .  A
C673       Br679   1.932       .  S
C674        C675   1.420       .  A
C675        C676   1.416       .  A
C675       Br684   1.931       .  S
C676       Br680   1.930       .  S
C685        C686   1.409       .  A
C685        C690   1.410       .  A
C686        C687   1.410       .  A
C686       Br698   1.929       .  S
C687        C688   1.411       .  A
C687       Br702   1.929       .  S
C688        C689   1.411       .  A
C688        C691   1.491       .  S
C689        C690   1.411       .  A
C689       Br697   1.928       .  S
C690       Br701   1.928       .  S
C691        C692   1.411       .  A
C691        C696   1.410       .  A
C692        C693   1.412       .  A
C692       Br703   1.928       .  S
C693        C694   1.411       .  A
C693       Br699   1.929       .  S
C694        C695   1.409       .  A
C695        C696   1.408       .  A
C695       Br704   1.929       .  S
C696       Br700   1.929       .  S
C705        C706   1.410       .  A
C705        C710   1.411       .  A
C706        C707   1.407       .  A
C706       Br718   1.927       .  S
C707        C708   1.408       .  A
C707       Br722   1.929       .  S
C708        C709   1.411       .  A
C708        C711   1.489       .  S
C709        C710   1.411       .  A
C709       Br717   1.929       .  S
C710       Br721   1.929       .  S
C711        C712   1.410       .  A
C711        C716   1.410       .  A
C712        C713   1.411       .  A
C712       Br723   1.928       .  S
C713        C714   1.411       .  A
C713       Br719   1.929       .  S
C714        C715   1.411       .  A
C715        C716   1.408       .  A
C715       Br724   1.930       .  S
C716       Br720   1.930       .  S
C725        C726   1.410       .  A
C725        C730   1.410   1_565  A
C726        C727   1.410       .  A
C726       Br738   1.929       .  S
C727        C728   1.411       .  A
C727       Br742   1.928       .  S
C728        C729   1.409   1_565  A
C728        C731   1.490       .  S
C729        C730   1.408       .  A
C729       Br737   1.929       .  S
C730       Br741   1.928       .  S
C731        C732   1.410   1_565  A
C731        C736   1.410       .  A
C732        C733   1.410       .  A
C732       Br743   1.930       .  S
C733        C734   1.412   1_545  A
C733       Br739   1.929       .  S
C734        C735   1.410       .  A
C735        C736   1.409       .  A
C735       Br744   1.928       .  S
C736       Br740   1.928       .  S
C745        C746   1.409       .  A
C745        C750   1.409   1_565  A
C746        C747   1.406       .  A
C746       Br758   1.929       .  S
C747        C748   1.408       .  A
C747       Br762   1.928       .  S
C748        C749   1.410   1_565  A
C748        C751   1.484       .  S
C749        C750   1.408       .  A
C749       Br757   1.929       .  S
C750       Br761   1.929       .  S
C751        C752   1.410       .  A
C751        C756   1.409       .  A
C752        C753   1.408       .  A
C752       Br763   1.928       .  S
C753        C754   1.409       .  A
C753       Br759   1.929       .  S
C754        C755   1.409       .  A
C755        C756   1.406       .  A
C755       Br764   1.930       .  S
C756       Br760   1.929       .  S
C765        C766   1.408       .  A
C765        C770   1.408       .  A
C766        C767   1.404       .  A
C766       Br778   1.929   1_545  S
C767        C768   1.409       .  A
C767       Br782   1.931   1_545  S
C768        C769   1.408       .  A
C768        C771   1.478       .  S
C769        C770   1.406       .  A
C769       Br777   1.928       .  S
C770       Br781   1.929       .  S
C771        C772   1.408       .  A
C771        C776   1.408   1_545  A
C772        C773   1.404       .  A
C772       Br783   1.929       .  S
C773        C774   1.410   1_545  A
C773       Br779   1.930       .  S
C774        C775   1.410       .  A
C775        C776   1.405       .  A
C775       Br784   1.929       .  S
C776       Br780   1.929       .  S
C785        C786   1.409       .  A
C785        C790   1.409       .  A
C786        C787   1.408       .  A
C786       Br798   1.930   1_545  S
C787        C788   1.410       .  A
C787       Br802   1.928   1_545  S
C788        C789   1.410       .  A
C788        C791   1.485       .  S
C789        C790   1.407       .  A
C789       Br797   1.929       .  S
C790       Br801   1.929       .  S
C791        C792   1.409       .  A
C791        C796   1.409   1_545  A
C792        C793   1.408       .  A
C792       Br803   1.929       .  S
C793        C794   1.411       .  A
C793       Br799   1.928       .  S
C794        C795   1.409   1_545  A
C795        C796   1.407       .  A
C795       Br804   1.928       .  S
C796       Br800   1.929       .  S
C805        C806   1.411       .  A
C805        C810   1.411       .  A
C806        C807   1.408       .  A
C806       Br818   1.931       .  S
C807        C808   1.410       .  A
C807       Br822   1.930       .  S
C808        C809   1.409       .  A
C808        C811   1.486       .  S
C809        C810   1.409       .  A
C809       Br817   1.929       .  S
C810       Br821   1.930       .  S
C811        C812   1.409       .  A
C811        C816   1.409       .  A
C812        C813   1.407       .  A
C812       Br823   1.929       .  S
C813        C814   1.410       .  A
C813       Br819   1.928       .  S
C814        C815   1.412       .  A
C815        C816   1.408       .  A
C815       Br824   1.930       .  S
C816       Br820   1.929       .  S
C825        C826   1.411       .  A
C825        C830   1.412       .  A
C826        C827   1.407       .  A
C826       Br838   1.932       .  S
C827        C828   1.410       .  A
C827       Br842   1.931       .  S
C828        C829   1.409       .  A
C828        C831   1.486       .  S
C829        C830   1.409       .  A
C829       Br837   1.929       .  S
C830       Br841   1.931       .  S
C831        C832   1.410       .  A
C831        C836   1.410       .  A
C832        C833   1.408       .  A
C832       Br843   1.929       .  S
C833        C834   1.410       .  A
C833       Br839   1.929       .  S
C834        C835   1.409       .  A
C835        C836   1.407       .  A
C835       Br844   1.929       .  S
C836       Br840   1.930       .  S
C845        C846   1.412       .  A
C845        C850   1.412       .  A
C846        C847   1.408       .  A
C846       Br858   1.931       .  S
C847        C848   1.409       .  A
C847       Br862   1.931       .  S
C848        C849   1.409       .  A
C848        C851   1.487       .  S
C849        C850   1.410       .  A
C849       Br857   1.929       .  S
C850       Br861   1.930       .  S
C851        C852   1.408       .  A
C851        C856   1.407       .  A
C852        C853   1.409       .  A
C852       Br863   1.931       .  S
C853        C854   1.419       .  A
C853       Br859   1.932       .  S
C854        C855   1.416       .  A
C855        C856   1.408       .  A
C855       Br864   1.931       .  S
C856       Br860   1.930       .  S
C865        C866   1.416       .  A
C865        C870   1.416       .  A
C866        C867   1.410       .  A
C866       Br878   1.934       .  S
C867        C868   1.410       .  A
C867       Br882   1.931       .  S
C868        C869   1.409       .  A
C868        C871   1.492       .  S
C869        C870   1.411       .  A
C869       Br877   1.930       .  S
C870       Br881   1.932       .  S
C871        C872   1.410       .  A
C871        C876   1.411       .  A
C872        C873   1.408       .  A
C872       Br883   1.930       .  S
C873        C874   1.410       .  A
C873       Br879   1.928       .  S
C874        C875   1.411       .  A
C875        C876   1.411       .  A
C875       Br884   1.927       .  S
C876       Br880   1.929       .  S
C885        C886   1.411       .  A
C885        C890   1.410       .  A
C886        C887   1.413       .  A
C886       Br898   1.928       .  S
C887        C888   1.412       .  A
C887       Br902   1.928       .  S
C888        C889   1.411       .  A
C888        C891   1.496       .  S
C889        C890   1.410       .  A
C889       Br897   1.929       .  S
C890       Br901   1.929       .  S
C891        C892   1.412       .  A
C891        C896   1.410       .  A
C892        C893   1.416       .  A
C892       Br903   1.928       .  S
C893        C894   1.414       .  A
C893       Br899   1.929       .  S
C894        C895   1.411       .  A
C895        C896   1.408       .  A
C895       Br904   1.932       .  S
C896       Br900   1.930       .  S
C905        C906   1.417       .  A
C905        C910   1.418       .  A
C906        C907   1.414       .  A
C906       Br918   1.930       .  S
C907        C908   1.410       .  A
C907       Br922   1.929       .  S
C908        C909   1.409       .  A
C908        C911   1.496       .  S
C909        C910   1.411       .  A
C909       Br917   1.932       .  S
C910       Br921   1.933       .  S
C911        C912   1.412       .  A
C911        C916   1.411       .  A
C912        C913   1.412       .  A
C912       Br923   1.928       .  S
C913        C914   1.411       .  A
C913       Br919   1.928       .  S
C914        C915   1.411       .  A
C915        C916   1.410       .  A
C915       Br924   1.929       .  S
C916       Br920   1.929       .  S
C925        C926   1.408       .  A
C925        C930   1.408       .  A
C926        C927   1.407       .  A
C926       Br938   1.930       .  S
C927        C928   1.410       .  A
C927       Br942   1.929       .  S
C928        C929   1.410       .  A
C928        C931   1.484       .  S
C929        C930   1.408       .  A
C929       Br937   1.929       .  S
C930       Br941   1.929       .  S
C931        C932   1.409       .  A
C931        C936   1.409       .  A
C932        C933   1.407       .  A
C932       Br943   1.929       .  S
C933        C934   1.409       .  A
C933       Br939   1.929       .  S
C934        C935   1.410       .  A
C935        C936   1.407       .  A
C935       Br944   1.929       .  S
C936       Br940   1.929       .  S
C945        C946   1.413       .  A
C945        C950   1.412       .  A
C946        C947   1.406       .  A
C946       Br958   1.928       .  S
C947        C948   1.407       .  A
C947       Br962   1.930       .  S
C948        C949   1.407       .  A
C948        C951   1.481       .  S
C949        C950   1.406       .  A
C949       Br957   1.929       .  S
C950       Br961   1.931       .  S
C951        C952   1.407       .  A
C951        C956   1.407       .  A
C952        C953   1.405       .  A
C952       Br963   1.933       .  S
C953        C954   1.415       .  A
C953       Br959   1.934       .  S
C954        C955   1.414       .  A
C955        C956   1.409       .  A
C955       Br964   1.930       .  S
C956       Br960   1.929       .  S
C965        C966   1.429       .  A
C965        C970   1.432       .  A
C966        C967   1.410       .  A
C966       Br978   1.934       .  S
C967        C968   1.403       .  A
C967       Br982   1.936       .  S
C968        C969   1.401       .  A
C968        C971   1.485       .  S
C969        C970   1.410       .  A
C969       Br977   1.935       .  S
C970       Br981   1.939       .  S
C971        C972   1.410       .  A
C971        C976   1.408       .  A
C972        C973   1.410       .  A
C972       Br983   1.928       .  S
C973        C974   1.409       .  A
C973       Br979   1.927       .  S
C974        C975   1.410       .  A
C975        C976   1.404       .  A
C975       Br984   1.929       .  S
C976       Br980   1.930       .  S
C985        C986   1.425       .  A
C985        C990   1.422       .  A
C986        C987   1.408       .  A
C986       Br998   1.938       .  S
C987        C988   1.405       .  A
C987      Br1002   1.935       .  S
C988        C989   1.406       .  A
C988        C991   1.487       .  S
C989        C990   1.412       .  A
C989       Br997   1.931       .  S
C990      Br1001   1.933       .  S
C991        C992   1.410       .  A
C991        C996   1.411       .  A
C992        C993   1.407       .  A
C992      Br1003   1.929       .  S
C993        C994   1.409       .  A
C993       Br999   1.929       .  S
C994        C995   1.408       .  A
C995        C996   1.408       .  A
C995      Br1004   1.929       .  S
C996      Br1000   1.929       .  S
C1005      C1006   1.409       .  A
C1005      C1010   1.408       .  A
C1006      C1007   1.410       .  A
C1006     Br1018   1.928       .  S
C1007      C1008   1.410       .  A
C1007     Br1022   1.928       .  S
C1008      C1009   1.411       .  A
C1008      C1011   1.489       .  S
C1009      C1010   1.407       .  A
C1009     Br1017   1.929       .  S
C1010     Br1021   1.930       .  S
C1011      C1012   1.410       .  A
C1011      C1016   1.409       .  A
C1012      C1013   1.410       .  A
C1012     Br1023   1.929       .  S
C1013      C1014   1.410       .  A
C1013     Br1019   1.928       .  S
C1014      C1015   1.412       .  A
C1015      C1016   1.409       .  A
C1015     Br1024   1.929       .  S
C1016     Br1020   1.929       .  S
C1025      C1026   1.418       .  A
C1025      C1030   1.417       .  A
C1026      C1027   1.408       .  A
C1026     Br1038   1.930       .  S
C1027      C1028   1.406       .  A
C1027     Br1042   1.931       .  S
C1028      C1029   1.408       .  A
C1028      C1031   1.486       .  S
C1029      C1030   1.409       .  A
C1029     Br1037   1.931       .  S
C1030     Br1041   1.933       .  S
C1031      C1032   1.410       .  A
C1031      C1036   1.409       .  A
C1032      C1033   1.411       .  A
C1032     Br1043   1.928       .  S
C1033      C1034   1.411       .  A
C1033     Br1039   1.927       .  S
C1034      C1035   1.410       .  A
C1035      C1036   1.405       .  A
C1035     Br1044   1.931       .  S
C1036     Br1040   1.931       .  S
C1045      C1046   1.413       .  A
C1045      C1050   1.411       .  A
C1046      C1047   1.410       .  A
C1046     Br1058   1.931       .  S
C1047      C1048   1.409       .  A
C1047     Br1062   1.928       .  S
C1048      C1049   1.410       .  A
C1048      C1051   1.487       .  S
C1049      C1050   1.408       .  A
C1049     Br1057   1.931       .  S
C1050     Br1061   1.931       .  S
C1051      C1052   1.409       .  A
C1051      C1056   1.410       .  A
C1052      C1053   1.407       .  A
C1052     Br1063   1.930       .  S
C1053      C1054   1.410       .  A
C1053     Br1059   1.927       .  S
C1054      C1055   1.411       .  A
C1055      C1056   1.410       .  A
C1055     Br1064   1.929       .  S
C1056     Br1060   1.928       .  S
C1065      C1066   1.409       .  A
C1065      C1070   1.410       .  A
C1066      C1067   1.407       .  A
C1066     Br1078   1.931       .  S
C1067      C1068   1.410       .  A
C1067     Br1082   1.930       .  S
C1068      C1069   1.409       .  A
C1068      C1071   1.483       .  S
C1069      C1070   1.407       .  A
C1069     Br1077   1.930       .  S
C1070     Br1081   1.929       .  S
C1071      C1072   1.410       .  A
C1071      C1076   1.410       .  A
C1072      C1073   1.406       .  A
C1072     Br1083   1.929       .  S
C1073      C1074   1.407       .  A
C1073     Br1079   1.930       .  S
C1074      C1075   1.408       .  A
C1075      C1076   1.406       .  A
C1075     Br1084   1.930       .  S
C1076     Br1080   1.929       .  S
C1085      C1086   1.416       .  A
C1085      C1090   1.416       .  A
C1086      C1087   1.410       .  A
C1086     Br1098   1.932       .  S
C1087      C1088   1.408       .  A
C1087     Br1102   1.930       .  S
C1088      C1089   1.409       .  A
C1088      C1091   1.488       .  S
C1089      C1090   1.409       .  A
C1089     Br1097   1.931       .  S
C1090     Br1101   1.934       .  S
C1091      C1092   1.410       .  A
C1091      C1096   1.409       .  A
C1092      C1093   1.410       .  A
C1092     Br1103   1.929       .  S
C1093      C1094   1.412       .  A
C1093     Br1099   1.930       .  S
C1094      C1095   1.411       .  A
C1095      C1096   1.408       .  A
C1095     Br1104   1.928       .  S
C1096     Br1100   1.930       .  S
C1105      C1106   1.409       .  A
C1105      C1110   1.408       .  A
C1106      C1107   1.404       .  A
C1106     Br1118   1.929       .  S
C1107      C1108   1.409       .  A
C1107     Br1122   1.930       .  S
C1108      C1109   1.410       .  A
C1108      C1111   1.480       .  S
C1109      C1110   1.406       .  A
C1109     Br1117   1.930       .  S
C1110     Br1121   1.929       .  S
C1111      C1112   1.408       .  A
C1111      C1116   1.409       .  A
C1112      C1113   1.406       .  A
C1112     Br1123   1.930       .  S
C1113      C1114   1.412       .  A
C1113     Br1119   1.932       .  S
C1114      C1115   1.412       .  A
C1115      C1116   1.405       .  A
C1115     Br1124   1.932       .  S
C1116     Br1120   1.932       .  S
C1125      C1126   1.411       .  A
C1125      C1130   1.410       .  A
C1126      C1127   1.407       .  A
C1126     Br1138   1.931       .  S
C1127      C1128   1.409       .  A
C1127     Br1142   1.930       .  S
C1128      C1129   1.411       .  A
C1128      C1131   1.486       .  S
C1129      C1130   1.408       .  A
C1129     Br1137   1.931       .  S
C1130     Br1141   1.931       .  S
C1131      C1132   1.408       .  A
C1131      C1136   1.410       .  A
C1132      C1133   1.406       .  A
C1132     Br1143   1.930       .  S
C1133      C1134   1.413       .  A
C1133     Br1139   1.932       .  S
C1134      C1135   1.411       .  A
C1135      C1136   1.409       .  A
C1135     Br1144   1.928       .  S
C1136     Br1140   1.930       .  S
C1145      C1146   1.414       .  A
C1145      C1150   1.414       .  A
C1146      C1147   1.408       .  A
C1146     Br1158   1.932       .  S
C1147      C1148   1.408       .  A
C1147     Br1162   1.929       .  S
C1148      C1149   1.409       .  A
C1148      C1151   1.484       .  S
C1149      C1150   1.407       .  A
C1149     Br1157   1.932       .  S
C1150     Br1161   1.933       .  S
C1151      C1152   1.409       .  A
C1151      C1156   1.410       .  A
C1152      C1153   1.407       .  A
C1152     Br1163   1.929       .  S
C1153      C1154   1.410       .  A
C1153     Br1159   1.930       .  S
C1154      C1155   1.409       .  A
C1155      C1156   1.407       .  A
C1155     Br1164   1.929       .  S
C1156     Br1160   1.930       .  S
C1165      C1166   1.417       .  A
C1165      C1170   1.416       .  A
C1166      C1167   1.409       .  A
C1166     Br1178   1.934       .  S
C1167      C1168   1.408       .  A
C1167     Br1182   1.931       .  S
C1168      C1169   1.409       .  A
C1168      C1171   1.491       .  S
C1169      C1170   1.412       .  A
C1169     Br1177   1.930       .  S
C1170     Br1181   1.932       .  S
C1171      C1172   1.410       .  A
C1171      C1176   1.410       .  A
C1172      C1173   1.411       .  A
C1172     Br1183   1.929       .  S
C1173      C1174   1.412       .  A
C1173     Br1179   1.929       .  S
C1174      C1175   1.413       .  A
C1175      C1176   1.409       .  A
C1175     Br1184   1.930       .  S
C1176     Br1180   1.930       .  S
C1185      C1186   1.418       .  A
C1185      C1190   1.420       .  A
C1186      C1187   1.411       .  A
C1186     Br1198   1.933       .  S
C1187      C1188   1.409       .  A
C1187     Br1202   1.931       .  S
C1188      C1189   1.407       .  A
C1188      C1191   1.491       .  S
C1189      C1190   1.410       .  A
C1189     Br1197   1.931       .  S
C1190     Br1201   1.934       .  S
C1191      C1192   1.411       .  A
C1191      C1196   1.410       .  A
C1192      C1193   1.410       .  A
C1192     Br1203   1.929       .  S
C1193      C1194   1.411       .  A
C1193     Br1199   1.928       .  S
C1194      C1195   1.411       .  A
C1195      C1196   1.410       .  A
C1195     Br1204   1.930       .  S
C1196     Br1200   1.930       .  S
C1205      C1206   1.411       .  A
C1205      C1210   1.410       .  A
C1206      C1207   1.412       .  A
C1206     Br1218   1.928       .  S
C1207      C1208   1.411       .  A
C1207     Br1222   1.928       .  S
C1208      C1209   1.410       .  A
C1208      C1211   1.492       .  S
C1209      C1210   1.409       .  A
C1209     Br1217   1.929       .  S
C1210     Br1221   1.929       .  S
C1211      C1212   1.411       .  A
C1211      C1216   1.410       .  A
C1212      C1213   1.410       .  A
C1212     Br1223   1.929       .  S
C1213      C1214   1.409       .  A
C1213     Br1219   1.930       .  S
C1214      C1215   1.411       .  A
C1215      C1216   1.411       .  A
C1215     Br1224   1.929       .  S
C1216     Br1220   1.928       .  S
C1225      C1226   1.413       .  A
C1225      C1230   1.413       .  A
C1226      C1227   1.409       .  A
C1226     Br1238   1.927       .  S
C1227      C1228   1.408       .  A
C1227     Br1242   1.929       .  S
C1228      C1229   1.408       .  A
C1228      C1231   1.486       .  S
C1229      C1230   1.407       .  A
C1229     Br1237   1.930       .  S
C1230     Br1241   1.930       .  S
C1231      C1232   1.408       .  A
C1231      C1236   1.409       .  A
C1232      C1233   1.408       .  A
C1232     Br1243   1.929       .  S
C1233      C1234   1.412       .  A
C1233     Br1239   1.931       .  S
C1234      C1235   1.413       .  A
C1235      C1236   1.408       .  A
C1235     Br1244   1.932       .  S
C1236     Br1240   1.930       .  S
C1245      C1246   1.412       .  A
C1245      C1250   1.414       .  A
C1246      C1247   1.409       .  A
C1246     Br1258   1.930       .  S
C1247      C1248   1.410       .  A
C1247     Br1262   1.930       .  S
C1248      C1249   1.410       .  A
C1248      C1251   1.491       .  S
C1249      C1250   1.410       .  A
C1249     Br1257   1.930       .  S
C1250     Br1261   1.931       .  S
C1251      C1252   1.410       .  A
C1251      C1256   1.410       .  A
C1252      C1253   1.408       .  A
C1252     Br1263   1.930       .  S
C1253      C1254   1.412       .  A
C1253     Br1259   1.931       .  S
C1254      C1255   1.412       .  A
C1255      C1256   1.410       .  A
C1255     Br1264   1.928       .  S
C1256     Br1260   1.929       .  S
C1265      C1266   1.411       .  A
C1265      C1270   1.410       .  A
C1266      C1267   1.408       .  A
C1266     Br1278   1.932       .  S
C1267      C1268   1.410       .  A
C1267     Br1282   1.929       .  S
C1268      C1269   1.410       .  A
C1268      C1271   1.488       .  S
C1269      C1270   1.409       .  A
C1269     Br1277   1.929       .  S
C1270     Br1281   1.929       .  S
C1271      C1272   1.410       .  A
C1271      C1276   1.411       .  A
C1272      C1273   1.407       .  A
C1272     Br1283   1.929       .  S
C1273      C1274   1.409       .  A
C1273     Br1279   1.929       .  S
C1274      C1275   1.411       .  A
C1275      C1276   1.411       .  A
C1275     Br1284   1.928       .  S
C1276     Br1280   1.929       .  S
C1285      C1286   1.413       .  A
C1285      C1290   1.413       .  A
C1286      C1287   1.411       .  A
C1286     Br1298   1.930       .  S
C1287      C1288   1.409       .  A
C1287     Br1302   1.929       .  S
C1288      C1289   1.409       .  A
C1288      C1291   1.490       .  S
C1289      C1290   1.409       .  A
C1289     Br1297   1.930       .  S
C1290     Br1301   1.933       .  S
C1291      C1292   1.410       .  A
C1291      C1296   1.410       .  A
C1292      C1293   1.409       .  A
C1292     Br1303   1.929       .  S
C1293      C1294   1.411       .  A
C1293     Br1299   1.928       .  S
C1294      C1295   1.411       .  A
C1295      C1296   1.410       .  A
C1295     Br1304   1.929       .  S
C1296     Br1300   1.929       .  S
C1305      C1306   1.409       .  A
C1305      C1310   1.410       .  A
C1306      C1307   1.408       .  A
C1306     Br1318   1.931       .  S
C1307      C1308   1.411       .  A
C1307     Br1322   1.929       .  S
C1308      C1309   1.409       .  A
C1308      C1311   1.488       .  S
C1309      C1310   1.408       .  A
C1309     Br1317   1.928       .  S
C1310     Br1321   1.931       .  S
C1311      C1312   1.409       .  A
C1311      C1316   1.410       .  A
C1312      C1313   1.408       .  A
C1312     Br1323   1.929       .  S
C1313      C1314   1.411       .  A
C1313     Br1319   1.929       .  S
C1314      C1315   1.411       .  A
C1315      C1316   1.410       .  A
C1315     Br1324   1.928       .  S
C1316     Br1320   1.929       .  S
C1325      C1326   1.414       .  A
C1325      C1330   1.412       .  A
C1326      C1327   1.410       .  A
C1326     Br1338   1.930       .  S
C1327      C1328   1.409       .  A
C1327     Br1342   1.931       .  S
C1328      C1329   1.409       .  A
C1328      C1331   1.489       .  S
C1329      C1330   1.409       .  A
C1329     Br1337   1.930       .  S
C1330     Br1341   1.926       .  S
C1331      C1332   1.408       .  A
C1331      C1336   1.409       .  A
C1332      C1333   1.409       .  A
C1332     Br1343   1.930       .  S
C1333      C1334   1.416       .  A
C1333     Br1339   1.933       .  S
C1334      C1335   1.415       .  A
C1335      C1336   1.409       .  A
C1335     Br1344   1.933       .  S
C1336     Br1340   1.931       .  S
C1345      C1346   1.412       .  A
C1345      C1350   1.412       .  A
C1346      C1347   1.411       .  A
C1346     Br1358   1.929       .  S
C1347      C1348   1.411       .  A
C1347     Br1362   1.929       .  S
C1348      C1349   1.411       .  A
C1348      C1351   1.497       .  S
C1349      C1350   1.413       .  A
C1349     Br1357   1.928       .  S
C1350     Br1361   1.928       .  S
C1351      C1352   1.410       .  A
C1351      C1356   1.409       .  A
C1352      C1353   1.413       .  A
C1352     Br1363   1.931       .  S
C1353      C1354   1.418       .  A
C1353     Br1359   1.933       .  S
C1354      C1355   1.417       .  A
C1355      C1356   1.413       .  A
C1355     Br1364   1.931       .  S
C1356     Br1360   1.929       .  S
C1365      C1366   1.419       .  A
C1365      C1370   1.418       .  A
C1366      C1367   1.411       .  A
C1366     Br1378   1.933       .  S
C1367      C1368   1.407       .  A
C1367     Br1382   1.930       .  S
C1368      C1369   1.409       .  A
C1368      C1371   1.489       .  S
C1369      C1370   1.409       .  A
C1369     Br1377   1.933       .  S
C1370     Br1381   1.934       .  S
C1371      C1372   1.410       .  A
C1371      C1376   1.411       .  A
C1372      C1373   1.407       .  A
C1372     Br1383   1.928       .  S
C1373      C1374   1.407       .  A
C1373     Br1379   1.928       .  S
C1374      C1375   1.410       .  A
C1375      C1376   1.410       .  A
C1375     Br1384   1.928       .  S
C1376     Br1380   1.929       .  S
C1385      C1386   1.414       .  A
C1385      C1390   1.415       .  A
C1386      C1387   1.409       .  A
C1386     Br1398   1.933       .  S
C1387      C1388   1.411       .  A
C1387     Br1402   1.931       .  S
C1388      C1389   1.410       .  A
C1388      C1391   1.492       .  S
C1389      C1390   1.412       .  A
C1389     Br1397   1.929       .  S
C1390     Br1401   1.931       .  S
C1391      C1392   1.410       .  A
C1391      C1396   1.412       .  A
C1392      C1393   1.409       .  A
C1392     Br1403   1.930       .  S
C1393      C1394   1.410       .  A
C1393     Br1399   1.927       .  S
C1394      C1395   1.411       .  A
C1395      C1396   1.411       .  A
C1395     Br1404   1.930       .  S
C1396     Br1400   1.929       .  S
C1405      C1406   1.410       .  A
C1405      C1410   1.409       .  A
C1406      C1407   1.408       .  A
C1406     Br1418   1.930       .  S
C1407      C1408   1.410       .  A
C1407     Br1422   1.930       .  S
C1408      C1409   1.407       .  A
C1408      C1411   1.483       .  S
C1409      C1410   1.406       .  A
C1409     Br1417   1.929       .  S
C1410     Br1421   1.923       .  S
C1411      C1412   1.409       .  A
C1411      C1416   1.409       .  A
C1412      C1413   1.406       .  A
C1412     Br1423   1.930       .  S
C1413      C1414   1.410       .  A
C1413     Br1419   1.930       .  S
C1414      C1415   1.410       .  A
C1415      C1416   1.408       .  A
C1415     Br1424   1.929       .  S
C1416     Br1420   1.929       .  S
C1425      C1426   1.408       .  A
C1425      C1430   1.409       .  A
C1426      C1427   1.407       .  A
C1426     Br1438   1.924       .  S
C1427      C1428   1.410       .  A
C1427     Br1442   1.931       .  S
C1428      C1429   1.410       .  A
C1428      C1431   1.486       .  S
C1429      C1430   1.409       .  A
C1429     Br1437   1.928       .  S
C1430     Br1441   1.928       .  S
C1431      C1432   1.411       .  A
C1431      C1436   1.410       .  A
C1432      C1433   1.409       .  A
C1432     Br1443   1.928       .  S
C1433      C1434   1.408       .  A
C1433     Br1439   1.929       .  S
C1434      C1435   1.408       .  A
C1435      C1436   1.405       .  A
C1435     Br1444   1.930       .  S
C1436     Br1440   1.930       .  S
C1445      C1446   1.409       .  A
C1445      C1450   1.409       .  A
C1446      C1447   1.408       .  A
C1446     Br1458   1.929       .  S
C1447      C1448   1.411       .  A
C1447     Br1462   1.930       .  S
C1448      C1449   1.410       .  A
C1448      C1451   1.488       .  S
C1449      C1450   1.408       .  A
C1449     Br1457   1.930       .  S
C1450     Br1461   1.929       .  S
C1451      C1452   1.409       .  A
C1451      C1456   1.408       .  A
C1452      C1453   1.408       .  A
C1452     Br1463   1.933       .  S
C1453      C1454   1.417       .  A
C1453     Br1459   1.933       .  S
C1454      C1455   1.419       .  A
C1455      C1456   1.410       .  A
C1455     Br1464   1.934       .  S
C1456     Br1460   1.931       .  S
C1465      C1466   1.412       .  A
C1465      C1470   1.413       .  A
C1466      C1467   1.411       .  A
C1466     Br1478   1.929       .  S
C1467      C1468   1.410       .  A
C1467     Br1482   1.929       .  S
C1468      C1469   1.410       .  A
C1468      C1471   1.491       .  S
C1469      C1470   1.410       .  A
C1469     Br1477   1.930       .  S
C1470     Br1481   1.931       .  S
C1471      C1472   1.411       .  A
C1471      C1476   1.410       .  A
C1472      C1473   1.410       .  A
C1472     Br1483   1.929       .  S
C1473      C1474   1.410       .  A
C1473     Br1479   1.929       .  S
C1474      C1475   1.411       .  A
C1475      C1476   1.409       .  A
C1475     Br1484   1.930       .  S
C1476     Br1480   1.928       .  S
C1485      C1486   1.417       .  A
C1485      C1490   1.415       .  A
C1486      C1487   1.410       .  A
C1486     Br1498   1.932       .  S
C1487      C1488   1.408       .  A
C1487     Br1502   1.931       .  S
C1488      C1489   1.409       .  A
C1488      C1491   1.489       .  S
C1489      C1490   1.410       .  A
C1489     Br1497   1.930       .  S
C1490     Br1501   1.931       .  S
C1491      C1492   1.409       .  A
C1491      C1496   1.410       .  A
C1492      C1493   1.408       .  A
C1492     Br1503   1.930       .  S
C1493      C1494   1.413       .  A
C1493     Br1499   1.931       .  S
C1494      C1495   1.412       .  A
C1495      C1496   1.410       .  A
C1495     Br1504   1.930       .  S
C1496     Br1500   1.929       .  S
C1505      C1506   1.418       .  A
C1505      C1510   1.417       .  A
C1506      C1507   1.413       .  A
C1506     Br1518   1.932       .  S
C1507      C1508   1.409       .  A
C1507     Br1522   1.929       .  S
C1508      C1509   1.409       .  A
C1508      C1511   1.495       .  S
C1509      C1510   1.412       .  A
C1509     Br1517   1.931       .  S
C1510     Br1521   1.932       .  S
C1511      C1512   1.411       .  A
C1511      C1516   1.411       .  A
C1512      C1513   1.411       .  A
C1512     Br1523   1.929       .  S
C1513      C1514   1.412       .  A
C1513     Br1519   1.930       .  S
C1514      C1515   1.412       .  A
C1515      C1516   1.412       .  A
C1515     Br1524   1.929       .  S
C1516     Br1520   1.928       .  S
C1525      C1526   1.414       .  A
C1525      C1530   1.415       .  A
C1526      C1527   1.410       .  A
C1526     Br1538   1.931       .  S
C1527      C1528   1.409       .  A
C1527     Br1542   1.929       .  S
C1528      C1529   1.408       .  A
C1528      C1531   1.487       .  S
C1529      C1530   1.407       .  A
C1529     Br1537   1.931       .  S
C1530     Br1541   1.934       .  S
C1531      C1532   1.409       .  A
C1531      C1536   1.408       .  A
C1532      C1533   1.409       .  A
C1532     Br1543   1.929       .  S
C1533      C1534   1.413       .  A
C1533     Br1539   1.930       .  S
C1534      C1535   1.413       .  A
C1535      C1536   1.409       .  A
C1535     Br1544   1.927       .  S
C1536     Br1540   1.930       .  S
C1545      C1546   1.412       .  A
C1545      C1550   1.413       .  A
C1546      C1547   1.409       .  A
C1546     Br1558   1.931       .  S
C1547      C1548   1.410       .  A
C1547     Br1562   1.930       .  S
C1548      C1549   1.410       .  A
C1548      C1551   1.490       .  S
C1549      C1550   1.411       .  A
C1549     Br1557   1.929       .  S
C1550     Br1561   1.931       .  S
C1551      C1552   1.411       .  A
C1551      C1556   1.410       .  A
C1552      C1553   1.410       .  A
C1552     Br1563   1.928       .  S
C1553      C1554   1.410       .  A
C1553     Br1559   1.928       .  S
C1554      C1555   1.410       .  A
C1555      C1556   1.409       .  A
C1555     Br1564   1.928       .  S
C1556     Br1560   1.929       .  S
C1565      C1566   1.413       .  A
C1565      C1570   1.414       .  A
C1566      C1567   1.406       .  A
C1566     Br1578   1.931       .  S
C1567      C1568   1.407       .  A
C1567     Br1582   1.931       .  S
C1568      C1569   1.407       .  A
C1568      C1571   1.481       .  S
C1569      C1570   1.408       .  A
C1569     Br1577   1.930       .  S
C1570     Br1581   1.931       .  S
C1571      C1572   1.409       .  A
C1571      C1576   1.408       .  A
C1572      C1573   1.408       .  A
C1572     Br1583   1.928       .  S
C1573      C1574   1.410       .  A
C1573     Br1579   1.930       .  S
C1574      C1575   1.410       .  A
C1575      C1576   1.404       .  A
C1575     Br1584   1.928       .  S
C1576     Br1580   1.931       .  S
C1585      C1586   1.410       .  A
C1585      C1590   1.411       .  A
C1586      C1587   1.406       .  A
C1586     Br1598   1.927       .  S
C1587      C1588   1.409       .  A
C1587     Br1602   1.930       .  S
C1588      C1589   1.411       .  A
C1588      C1591   1.488       .  S
C1589      C1590   1.411       .  A
C1589     Br1597   1.929       .  S
C1590     Br1601   1.927       .  S
C1591      C1592   1.409       .  A
C1591      C1596   1.409       .  A
C1592      C1593   1.408       .  A
C1592     Br1603   1.931       .  S
C1593      C1594   1.414       .  A
C1593     Br1599   1.933       .  S
C1594      C1595   1.414       .  A
C1595      C1596   1.409       .  A
C1595     Br1604   1.932       .  S
C1596     Br1600   1.929       .  S
C1605      C1606   1.421       .  A
C1605      C1610   1.419       .  A
C1606      C1607   1.412       .  A
C1606     Br1618   1.933       .  S
C1607      C1608   1.408       .  A
C1607     Br1622   1.932       .  S
C1608      C1609   1.407       .  A
C1608      C1611   1.492       .  S
C1609      C1610   1.412       .  A
C1609     Br1617   1.931       .  S
C1610     Br1621   1.932       .  S
C1611      C1612   1.410       .  A
C1611      C1616   1.410       .  A
C1612      C1613   1.411       .  A
C1612     Br1623   1.928       .  S
C1613      C1614   1.413       .  A
C1613     Br1619   1.930       .  S
C1614      C1615   1.411       .  A
C1615      C1616   1.409       .  A
C1615     Br1624   1.926       .  S
C1616     Br1620   1.930       .  S
C1625      C1626   1.416       .  A
C1625      C1630   1.416       .  A
C1626      C1627   1.408       .  A
C1626     Br1638   1.933       .  S
C1627      C1628   1.408       .  A
C1627     Br1642   1.931       .  S
C1628      C1629   1.407       .  A
C1628      C1631   1.485       .  S
C1629      C1630   1.408       .  A
C1629     Br1637   1.930       .  S
C1630     Br1641   1.934       .  S
C1631      C1632   1.409       .  A
C1631      C1636   1.410       .  A
C1632      C1633   1.406       .  A
C1632     Br1643   1.930       .  S
C1633      C1634   1.409       .  A
C1633     Br1639   1.929       .  S
C1634      C1635   1.411       .  A
C1635      C1636   1.409       .  A
C1635     Br1644   1.929       .  S
C1636     Br1640   1.929       .  S
C1645      C1646   1.409       .  A
C1645      C1650   1.407       .  A
C1646      C1647   1.405       .  A
C1646     Br1658   1.929       .  S
C1647      C1648   1.408       .  A
C1647     Br1662   1.928       .  S
C1648      C1649   1.409       .  A
C1648      C1651   1.477       .  S
C1649      C1650   1.404       .  A
C1649     Br1657   1.931       .  S
C1650     Br1661   1.929       .  S
C1651      C1652   1.408       .  A
C1651      C1656   1.408   1_554  A
C1652      C1653   1.405       .  A
C1652     Br1663   1.928       .  S
C1653      C1654   1.409       .  A
C1653     Br1659   1.929       .  S
C1654      C1655   1.409   1_554  A
C1655      C1656   1.404       .  A
C1655     Br1664   1.928       .  S
C1656     Br1660   1.930       .  S
C1665      C1666   1.409   1_554  A
C1665      C1670   1.408       .  A
C1666      C1667   1.408       .  A
C1666     Br1678   1.929       .  S
C1667      C1668   1.409   1_556  A
C1667     Br1682   1.928       .  S
C1668      C1669   1.410       .  A
C1668      C1671   1.485   1_554  S
C1669      C1670   1.407       .  A
C1669     Br1677   1.930       .  S
C1670     Br1681   1.928       .  S
C1671      C1672   1.409   1_556  A
C1671      C1676   1.410       .  A
C1672      C1673   1.407       .  A
C1672     Br1683   1.929       .  S
C1673      C1674   1.409   1_554  A
C1673     Br1679   1.928       .  S
C1674      C1675   1.409       .  A
C1675      C1676   1.408       .  A
C1675     Br1684   1.928       .  S
C1676     Br1680   1.929       .  S
C1685      C1686   1.416       .  A
C1685      C1690   1.415   1_556  A
C1686      C1687   1.407       .  A
C1686     Br1698   1.927       .  S
C1687      C1688   1.406       .  A
C1687     Br1702   1.932       .  S
C1688      C1689   1.407   1_556  A
C1688      C1691   1.482       .  S
C1689      C1690   1.408       .  A
C1689     Br1697   1.930       .  S
C1690     Br1701   1.931       .  S
C1691      C1692   1.410   1_556  A
C1691      C1696   1.407       .  A
C1692      C1693   1.407       .  A
C1692     Br1703   1.929       .  S
C1693      C1694   1.410   1_554  A
C1693     Br1699   1.930       .  S
C1694      C1695   1.411       .  A
C1695      C1696   1.404       .  A
C1695     Br1704   1.930       .  S
C1696     Br1700   1.929       .  S
C1705      C1706   1.408       .  A
C1705      C1710   1.410       .  A
C1706      C1707   1.408       .  A
C1706     Br1718   1.928       .  S
C1707      C1708   1.410       .  A
C1707     Br1722   1.929       .  S
C1708      C1709   1.409       .  A
C1708      C1711   1.484       .  S
C1709      C1710   1.407       .  A
C1709     Br1717   1.930       .  S
C1710     Br1721   1.929       .  S
C1711      C1712   1.409   1_556  A
C1711      C1716   1.410       .  A
C1712      C1713   1.406       .  A
C1712     Br1723   1.930       .  S
C1713      C1714   1.409   1_554  A
C1713     Br1719   1.929       .  S
C1714      C1715   1.409       .  A
C1715      C1716   1.408       .  A
C1715     Br1724   1.928       .  S
C1716     Br1720   1.928       .  S
C1725      C1726   1.410   1_655  A
C1725      C1730   1.408       .  A
C1726      C1727   1.407       .  A
C1726     Br1738   1.929       .  S
C1727      C1728   1.409   1_455  A
C1727     Br1742   1.929       .  S
C1728      C1729   1.409       .  A
C1728      C1731   1.484       .  S
C1729      C1730   1.406       .  A
C1729     Br1737   1.929       .  S
C1730     Br1741   1.928       .  S
C1731      C1732   1.410       .  A
C1731      C1736   1.409       .  A
C1732      C1733   1.408       .  A
C1732     Br1743   1.928       .  S
C1733      C1734   1.409       .  A
C1733     Br1739   1.929       .  S
C1734      C1735   1.409       .  A
C1735      C1736   1.406       .  A
C1735     Br1744   1.928       .  S
C1736     Br1740   1.930       .  S
C1745      C1746   1.409       .  A
C1745      C1750   1.409       .  A
C1746      C1747   1.410       .  A
C1746     Br1758   1.928       .  S
C1747      C1748   1.411       .  A
C1747     Br1762   1.928       .  S
C1748      C1749   1.410       .  A
C1748      C1751   1.489       .  S
C1749      C1750   1.407       .  A
C1749     Br1757   1.929       .  S
C1750     Br1761   1.929   1_655  S
C1751      C1752   1.410       .  A
C1751      C1756   1.409   1_655  A
C1752      C1753   1.410       .  A
C1752     Br1763   1.929       .  S
C1753      C1754   1.410       .  A
C1753     Br1759   1.927       .  S
C1754      C1755   1.411   1_655  A
C1755      C1756   1.409       .  A
C1755     Br1764   1.929       .  S
C1756     Br1760   1.929       .  S
C1765      C1766   1.411   1_455  A
C1765      C1770   1.411       .  A
C1766      C1767   1.408       .  A
C1766     Br1778   1.929       .  S
C1767      C1768   1.409   1_655  A
C1767     Br1782   1.929       .  S
C1768      C1769   1.410       .  A
C1768      C1771   1.488       .  S
C1769      C1770   1.409       .  A
C1769     Br1777   1.929       .  S
C1770     Br1781   1.928       .  S
C1771      C1772   1.409   1_455  A
C1771      C1776   1.410       .  A
C1772      C1773   1.408       .  A
C1772     Br1783   1.929       .  S
C1773      C1774   1.411   1_655  A
C1773     Br1779   1.931       .  S
C1774      C1775   1.411       .  A
C1775      C1776   1.409       .  A
C1775     Br1784   1.929       .  S
C1776     Br1780   1.929       .  S
C1785      C1786   1.411       .  A
C1785      C1790   1.410   1_455  A
C1786      C1787   1.405       .  A
C1786     Br1798   1.929       .  S
C1787      C1788   1.407       .  A
C1787     Br1802   1.930       .  S
C1788      C1789   1.408   1_455  A
C1788      C1791   1.477       .  S
C1789      C1790   1.405       .  A
C1789     Br1797   1.930       .  S
C1790     Br1801   1.929       .  S
C1791      C1792   1.409   1_455  A
C1791      C1796   1.408       .  A
C1792      C1793   1.403       .  A
C1792     Br1803   1.930       .  S
C1793      C1794   1.408       .  A
C1793     Br1799   1.929       .  S
C1794      C1795   1.409   1_655  A
C1795      C1796   1.405       .  A
C1795     Br1804   1.929       .  S
C1796     Br1800   1.928       .  S
C1805      C1806   1.409       .  A
C1805      C1810   1.411       .  A
C1806      C1807   1.408       .  A
C1806     Br1818   1.928       .  S
C1807      C1808   1.411       .  A
C1807     Br1822   1.929       .  S
C1808      C1809   1.410       .  A
C1808      C1811   1.488       .  S
C1809      C1810   1.409       .  A
C1809     Br1817   1.929       .  S
C1810     Br1821   1.929       .  S
C1811      C1812   1.411       .  A
C1811      C1816   1.410       .  A
C1812      C1813   1.409       .  A
C1812     Br1823   1.928       .  S
C1813      C1814   1.409       .  A
C1813     Br1819   1.929       .  S
C1814      C1815   1.408       .  A
C1815      C1816   1.407       .  A
C1815     Br1824   1.930       .  S
C1816     Br1820   1.929       .  S
C1825      C1826   1.409       .  A
C1825      C1830   1.408       .  A
C1826      C1827   1.407       .  A
C1826     Br1838   1.928       .  S
C1827      C1828   1.410       .  A
C1827     Br1842   1.928       .  S
C1828      C1829   1.408       .  A
C1828      C1831   1.482       .  S
C1829      C1830   1.404       .  A
C1829     Br1837   1.929       .  S
C1830     Br1841   1.930       .  S
C1831      C1832   1.409       .  A
C1831      C1836   1.409       .  A
C1832      C1833   1.406       .  A
C1832     Br1843   1.930       .  S
C1833      C1834   1.409       .  A
C1833     Br1839   1.929       .  S
C1834      C1835   1.410       .  A
C1835      C1836   1.407       .  A
C1835     Br1844   1.930       .  S
C1836     Br1840   1.929       .  S
C1845      C1846   1.410       .  A
C1845      C1850   1.409       .  A
C1846      C1847   1.407       .  A
C1846     Br1858   1.929       .  S
C1847      C1848   1.409       .  A
C1847     Br1862   1.929       .  S
C1848      C1849   1.410       .  A
C1848      C1851   1.483       .  S
C1849      C1850   1.407       .  A
C1849     Br1857   1.929       .  S
C1850     Br1861   1.928       .  S
C1851      C1852   1.409       .  A
C1851      C1856   1.410       .  A
C1852      C1853   1.407       .  A
C1852     Br1863   1.929       .  S
C1853      C1854   1.409       .  A
C1853     Br1859   1.929       .  S
C1854      C1855   1.408       .  A
C1855      C1856   1.407       .  A
C1855     Br1864   1.929       .  S
C1856     Br1860   1.928       .  S
C1865      C1866   1.414       .  A
C1865      C1870   1.413       .  A
C1866      C1867   1.410       .  A
C1866     Br1878   1.930       .  S
C1867      C1868   1.409       .  A
C1867     Br1882   1.930       .  S
C1868      C1869   1.411       .  A
C1868      C1871   1.492       .  S
C1869      C1870   1.410       .  A
C1869     Br1877   1.930       .  S
C1870     Br1881   1.930       .  S
C1871      C1872   1.410       .  A
C1871      C1876   1.411       .  A
C1872      C1873   1.408       .  A
C1872     Br1883   1.930       .  S
C1873      C1874   1.410       .  A
C1873     Br1879   1.929       .  S
C1874      C1875   1.411       .  A
C1875      C1876   1.411       .  A
C1875     Br1884   1.930       .  S
C1876     Br1880   1.928       .  S
C1885      C1886   1.408       .  A
C1885      C1890   1.408       .  A
C1886      C1887   1.404       .  A
C1886     Br1898   1.928       .  S
C1887      C1888   1.408       .  A
C1887     Br1902   1.929       .  S
C1888      C1889   1.407       .  A
C1888      C1891   1.474       .  S
C1889      C1890   1.403       .  A
C1889     Br1897   1.929       .  S
C1890     Br1901   1.930       .  S
C1891      C1892   1.407       .  A
C1891      C1896   1.408       .  A
C1892      C1893   1.403       .  A
C1892     Br1903   1.929       .  S
C1893      C1894   1.409       .  A
C1893     Br1899   1.929       .  S
C1894      C1895   1.409       .  A
C1895      C1896   1.404       .  A
C1895     Br1904   1.931       .  S
C1896     Br1900   1.930       .  S
C1905      C1906   1.408       .  A
C1905      C1910   1.409       .  A
C1906      C1907   1.406       .  A
C1906     Br1918   1.930       .  S
C1907      C1908   1.409       .  A
C1907     Br1922   1.928       .  S
C1908      C1909   1.409       .  A
C1908      C1911   1.480       .  S
C1909      C1910   1.405       .  A
C1909     Br1917   1.930       .  S
C1910     Br1921   1.929       .  S
C1911      C1912   1.409       .  A
C1911      C1916   1.409       .  A
C1912      C1913   1.407       .  A
C1912     Br1923   1.928       .  S
C1913      C1914   1.409       .  A
C1913     Br1919   1.928       .  S
C1914      C1915   1.409       .  A
C1915      C1916   1.405       .  A
C1915     Br1924   1.930       .  S
C1916     Br1920   1.930       .  S
C1925      C1926   1.409       .  A
C1925      C1930   1.409       .  A
C1926      C1927   1.403       .  A
C1926     Br1938   1.930       .  S
C1927      C1928   1.408       .  A
C1927     Br1942   1.929       .  S
C1928      C1929   1.409       .  A
C1928      C1931   1.476       .  S
C1929      C1930   1.404       .  A
C1929     Br1937   1.929       .  S
C1930     Br1941   1.930       .  S
C1931      C1932   1.408       .  A
C1931      C1936   1.408       .  A
C1932      C1933   1.404       .  A
C1932     Br1943   1.930       .  S
C1933      C1934   1.408       .  A
C1933     Br1939   1.930       .  S
C1934      C1935   1.408       .  A
C1935      C1936   1.405       .  A
C1935     Br1944   1.929       .  S
C1936     Br1940   1.930       .  S
C1945      C1946   1.408       .  A
C1945      C1950   1.409       .  A
C1946      C1947   1.407       .  A
C1946     Br1958   1.928       .  S
C1947      C1948   1.410       .  A
C1947     Br1962   1.928       .  S
C1948      C1949   1.410       .  A
C1948      C1951   1.484       .  S
C1949      C1950   1.406       .  A
C1949     Br1957   1.928       .  S
C1950     Br1961   1.930       .  S
C1951      C1952   1.409       .  A
C1951      C1956   1.409       .  A
C1952      C1953   1.407       .  A
C1952     Br1963   1.931       .  S
C1953      C1954   1.409       .  A
C1953     Br1959   1.929       .  S
C1954      C1955   1.410       .  A
C1955      C1956   1.409       .  A
C1955     Br1964   1.929       .  S
C1956     Br1960   1.928       .  S
C1965      C1966   1.409       .  A
C1965      C1970   1.410       .  A
C1966      C1967   1.408       .  A
C1966     Br1978   1.928       .  S
C1967      C1968   1.410       .  A
C1967     Br1982   1.930       .  S
C1968      C1969   1.410       .  A
C1968      C1971   1.487       .  S
C1969      C1970   1.409       .  A
C1969     Br1977   1.929       .  S
C1970     Br1981   1.929       .  S
C1971      C1972   1.410       .  A
C1971      C1976   1.410       .  A
C1972      C1973   1.407       .  A
C1972     Br1983   1.929       .  S
C1973      C1974   1.409       .  A
C1973     Br1979   1.929       .  S
C1974      C1975   1.411       .  A
C1975      C1976   1.408       .  A
C1975     Br1984   1.930       .  S
C1976     Br1980   1.929       .  S
C1985      C1986   1.409       .  A
C1985      C1990   1.409       .  A
C1986      C1987   1.407       .  A
C1986     Br1998   1.929       .  S
C1987      C1988   1.410       .  A
C1987     Br2002   1.929       .  S
C1988      C1989   1.409       .  A
C1988      C1991   1.484       .  S
C1989      C1990   1.406       .  A
C1989     Br1997   1.929       .  S
C1990     Br2001   1.929       .  S
C1991      C1992   1.409       .  A
C1991      C1996   1.409       .  A
C1992      C1993   1.409       .  A
C1992     Br2003   1.929       .  S
C1993      C1994   1.410       .  A
C1993     Br1999   1.928       .  S
C1994      C1995   1.409       .  A
C1995      C1996   1.407       .  A
C1995     Br2004   1.929       .  S
C1996     Br2000   1.930       .  S
C2005      C2006   1.408       .  A
C2005      C2010   1.408       .  A
C2006      C2007   1.404       .  A
C2006     Br2018   1.929       .  S
C2007      C2008   1.408       .  A
C2007     Br2022   1.930       .  S
C2008      C2009   1.409       .  A
C2008      C2011   1.478       .  S
C2009      C2010   1.405       .  A
C2009     Br2017   1.929       .  S
C2010     Br2021   1.929       .  S
C2011      C2012   1.410       .  A
C2011      C2016   1.408       .  A
C2012      C2013   1.405       .  A
C2012     Br2023   1.930       .  S
C2013      C2014   1.408       .  A
C2013     Br2019   1.929       .  S
C2014      C2015   1.408       .  A
C2015      C2016   1.404       .  A
C2015     Br2024   1.930       .  S
C2016     Br2020   1.929       .  S
C2025      C2026   1.411       .  A
C2025      C2030   1.410       .  A
C2026      C2027   1.405       .  A
C2026     Br2038   1.927       .  S
C2027      C2028   1.406       .  A
C2027     Br2042   1.930       .  S
C2028      C2029   1.408       .  A
C2028      C2031   1.476       .  S
C2029      C2030   1.405       .  A
C2029     Br2037   1.931       .  S
C2030     Br2041   1.929       .  S
C2031      C2032   1.408       .  A
C2031      C2036   1.408       .  A
C2032      C2033   1.404       .  A
C2032     Br2043   1.929       .  S
C2033      C2034   1.409       .  A
C2033     Br2039   1.929       .  S
C2034      C2035   1.409       .  A
C2035      C2036   1.404       .  A
C2035     Br2044   1.929       .  S
C2036     Br2040   1.929       .  S
