geometry optimzed in LAMMPS
_audit_creation_date              2020-11-30 
_audit_creation_method            'lammps2cif' 
_symmetry_space_group_name_H-M    'P1' 
_symmetry_Int_Tables_number       1 
_symmetry_cell_setting            triclinic 
loop_ 
_symmetry_equiv_pos_as_xyz 
  x,y,z 
_cell_length_a                    53.90466584 
_cell_length_b                    54.18134952986768 
_cell_length_c                    54.194641016041565 
_cell_angle_alpha                 90.07811662436143 
_cell_angle_beta                  90.04950351754086 
_cell_angle_gamma                 90.21315130255269 
loop_ 
_atom_site_label 
_atom_site_type_symbol 
_atom_site_fract_x 
_atom_site_fract_y 
_atom_site_fract_z 
_atom_site_charge 
O1          O  0.62877272  0.68794727  0.68022040    -0.78500
C2          C  0.69213507  0.69796942  0.62625106     0.82500
O3          O  0.61564715  0.64883900  0.59838066    -0.79600
O4          O  0.68941138  0.61230563  0.60731824    -0.81100
O5          O  0.68810921  0.61604644  0.68973686    -0.80900
O6          O  0.64431523  0.65869233  0.70462796    -0.79500
Zn7        Zn  0.64327909  0.67871600  0.64627494     1.55700
O8          O  0.71204536  0.63101252  0.65963019    -0.80900
Cd9        Cd  0.65326921  0.63087633  0.68005423     1.59700
Cd10       Cd  0.63137156  0.62589692  0.62481004     1.59600
O11         O  0.62266447  0.60702168  0.68346453    -0.80900
O12         O  0.65411434  0.64493822  0.64615279    -1.91400
Cd13       Cd  0.68793599  0.64201439  0.63219568     1.59900
O14         O  0.60405272  0.61116368  0.64687739    -0.80900
O15         O  0.69970529  0.67667027  0.61929092    -0.79500
C16         C  0.61264462  0.67220372  0.59858048     0.83000
C17         C  0.63240534  0.67880105  0.70172422     0.82700
O18         O  0.67258885  0.70046535  0.63925445    -0.78500
C19         C  0.70951715  0.61949880  0.67999887     0.83500
O20         O  0.62045490  0.68541447  0.61660075    -0.78600
C21         C  0.60389917  0.60388864  0.66926417     0.83600
C22         C  0.67355153  0.59541182  0.60212900     0.83900
O23         O  0.65076149  0.59746784  0.60814759    -0.81000
O24         O  0.82573116  0.62250650  0.31878060    -0.78500
C25         C  0.87805263  0.68740211  0.30853605     0.82500
O26         O  0.90833183  0.61791481  0.36073366    -0.79600
O27         O  0.89100406  0.68996806  0.39570473    -0.81100
O28         O  0.81213148  0.68071589  0.39105549    -0.80900
O29         O  0.80038886  0.63588629  0.34852897    -0.79500
Zn30       Zn  0.85939775  0.63826667  0.32844646     1.55700
O31         O  0.83817500  0.70699373  0.37263051    -0.80900
Cd32       Cd  0.82408715  0.64679548  0.37643534     1.59700
Cd33       Cd  0.88002178  0.63057070  0.38240497     1.59600
O34         O  0.82307257  0.61690735  0.40107709    -0.80900
O35         O  0.85759641  0.65032161  0.36196582    -1.91400
Cd36       Cd  0.86838313  0.68519435  0.36431559     1.59900
O37         O  0.86099174  0.60112449  0.39715196    -0.80900
O38         O  0.88279002  0.69629924  0.32998414    -0.79500
C39         C  0.90922118  0.61253232  0.33785864     0.83000
C40         C  0.80393424  0.62484512  0.32801051     0.82700
O41         O  0.86643179  0.66699524  0.30588068    -0.78500
C42         C  0.81901064  0.70275774  0.38578861     0.83500
O43         O  0.89073690  0.61664242  0.32355781    -0.78600
C44         C  0.83864070  0.59946693  0.40462930     0.83600
C45         C  0.89744891  0.67498543  0.41281243     0.83900
O46         O  0.89404796  0.65178443  0.41074883    -0.81000
O47         O  0.89423204  0.40351173  0.17607970    -0.78500
C48         C  0.83919360  0.41450555  0.11524812     0.82500
O49         O  0.81361990  0.35699596  0.18424542    -0.79600
O50         O  0.82446761  0.32887467  0.10978955    -0.81100
O51         O  0.90832255  0.33582237  0.11341189    -0.80900
O52         O  0.92026219  0.37622052  0.15952514    -0.79500
Zn53       Zn  0.86043563  0.39217746  0.16253822     1.55700
O54         O  0.87759290  0.35016145  0.08985299    -0.80900
Cd55       Cd  0.89730051  0.34747155  0.14882253     1.59700
Cd56       Cd  0.84221134  0.33721260  0.16824915     1.59600
O57         O  0.90149298  0.32175272  0.17754553    -0.80900
O58         O  0.86264069  0.35967936  0.14816177    -1.91400
Cd59       Cd  0.84923922  0.35868547  0.11402189     1.59900
O60         O  0.86420914  0.32202499  0.19544091    -0.80900
O61         O  0.83584877  0.39368522  0.10449410    -0.79500
C62         C  0.81368963  0.37935921  0.19164544     0.83000
C63         C  0.91629353  0.39596414  0.17174233     0.82700
O64         O  0.84959602  0.41606870  0.13633553    -0.78500
C65         C  0.89878260  0.34000119  0.09214699     0.83500
O66         O  0.83206563  0.39371669  0.18734317    -0.78600
C67         C  0.88713953  0.31626483  0.19558361     0.83600
C68         C  0.82097720  0.30992118  0.12348969     0.83900
O69         O  0.82806415  0.30956568  0.14595337    -0.81000
C70         C  0.75981446  0.59753021  0.00405307     0.03100
C71         C  0.74863442  0.58376867  0.98477573    -0.13000
C72         C  0.75095155  0.55788766  0.98405089     0.00600
C73         C  0.76459448  0.54602722  0.00244610    -0.11600
C74         C  0.77551018  0.55922570  0.02177403     0.03100
C75         C  0.77284371  0.58498530  0.02283275    -0.11000
H76         H  0.73837032  0.59314627  0.97040000     0.08700
H77         H  0.76637544  0.52608425  0.00200616     0.06200
H78         H  0.78161735  0.59527501  0.03763359     0.06100
C79         C  0.05986777  0.52800275  0.27173768     0.03100
C80         C  0.08596631  0.52788598  0.27037806    -0.13000
C81         C  0.09842642  0.50804402  0.25871378     0.00600
C82         C  0.08418831  0.48866429  0.24815564    -0.11600
C83         C  0.05807105  0.48899368  0.24947955     0.03100
C84         C  0.04638468  0.50869455  0.26124100    -0.11000
H85         H  0.09647894  0.54279025  0.27872927     0.08700
H86         H  0.09336472  0.47350246  0.23889984     0.06200
H87         H  0.02627204  0.50918719  0.26210623     0.06100
O88         O  0.61895089  0.31685246  0.83014070    -0.78500
C89         C  0.68265634  0.30711600  0.88399659     0.82500
O90         O  0.61155411  0.36431931  0.90886116    -0.79600
O91         O  0.68560698  0.39300387  0.89774595    -0.81100
O92         O  0.68124332  0.38662763  0.81532406    -0.80900
O93         O  0.63664212  0.34282736  0.80341613    -0.79500
Zn94       Zn  0.63429640  0.32794335  0.86336067     1.55700
O95         O  0.70561931  0.37204840  0.84530681    -0.80900
Cd96       Cd  0.64648439  0.37235237  0.82567200     1.59700
Cd97       Cd  0.62734838  0.38361262  0.88003258     1.59600
O98         O  0.61652472  0.39633675  0.82050431    -0.80900
O99         O  0.64762338  0.36084301  0.86038463    -1.91400
Cd100      Cd  0.68181218  0.36283219  0.87364480     1.59900
O101        O  0.59949455  0.39707174  0.85796764    -0.80900
O102        O  0.69223277  0.32844400  0.88789349    -0.79500
C103        C  0.60567596  0.34154646  0.91052515     0.83000
C104        C  0.62333722  0.32380724  0.80794036     0.82700
O105        O  0.66197805  0.30463987  0.87272355    -0.78500
C106        C  0.70275793  0.38316172  0.82476443     0.83500
O107        O  0.61102097  0.32618522  0.89336408    -0.78600
C108        C  0.59852013  0.40161768  0.83491602     0.83600
C109        C  0.67189467  0.41206427  0.90047914     0.83900
O110        O  0.64937537  0.41220369  0.89317122    -0.81000
O111        O  0.40719026  0.17001057  0.89643466    -0.78500
C112        C  0.41968936  0.10943163  0.84087712     0.82500
O113        O  0.36411072  0.17970312  0.81457990    -0.79600
O114        O  0.33425354  0.10764305  0.82187849    -0.81100
O115        O  0.33712416  0.10841753  0.90613283    -0.80900
O116        O  0.37744898  0.15472511  0.92075591    -0.79500
Zn117      Zn  0.39740662  0.15663509  0.86210736     1.55700
O118        O  0.35090625  0.08527857  0.87482522    -0.80900
Cd119      Cd  0.34985320  0.14391396  0.89653468     1.59700
Cd120      Cd  0.34302817  0.16460071  0.84242062     1.59600
O121        O  0.32384239  0.17262543  0.89994592    -0.80900
O122        O  0.36420645  0.14339706  0.86282016    -1.91400
Cd123      Cd  0.36287276  0.10983405  0.84812200     1.59900
O124        O  0.32847728  0.19214429  0.86402753    -0.80900
O125        O  0.39857531  0.09956669  0.83600609    -0.79500
C126        C  0.38713088  0.18515215  0.81450749     0.83000
C127        C  0.39792228  0.16629155  0.91791008     0.82700
O128        O  0.42132726  0.12984531  0.85252281    -0.78500
C129        C  0.34015603  0.08738638  0.89570170     0.83500
O130        O  0.40111861  0.18035048  0.83297752    -0.78600
C131        C  0.32063723  0.19156622  0.88619448     0.83600
C132        C  0.31522176  0.12148052  0.81919195     0.83900
O133        O  0.31480271  0.14346186  0.82762383    -0.81000
C134        C  0.48821600  0.24296030  0.06097502     0.03100
C135        C  0.48748518  0.24375215  0.08695782    -0.13000
C136        C  0.50458763  0.25862236  0.10023906     0.00600
C137        C  0.52191299  0.27318212  0.08691651    -0.11600
C138        C  0.52186043  0.27298820  0.06090146     0.03100
C139        C  0.50514030  0.25782709  0.04836584    -0.11000
H140        H  0.47442691  0.23213417  0.09678107     0.08700
H141        H  0.53513900  0.28469201  0.09669900     0.06200
H142        H  0.50545823  0.25742962  0.02833613     0.06100
C143        C  0.52264721  0.25192927  0.66866372     0.03100
C144        C  0.52316809  0.25497067  0.64281099    -0.13000
C145        C  0.50219545  0.24881785  0.62823377     0.00600
C146        C  0.48053741  0.23989773  0.63998512    -0.11600
C147        C  0.48017773  0.23659378  0.66570994     0.03100
C148        C  0.50112956  0.24260442  0.67965670    -0.11000
H149        H  0.53972603  0.26223025  0.63408517     0.08700
H150        H  0.46430881  0.23510762  0.62916307     0.06200
H151        H  0.50036030  0.24051400  0.69955258     0.06100
C152        C  0.60347937  0.00152979  0.75494027     0.03100
C153        C  0.58897219  0.98621302  0.73938484    -0.13000
C154        C  0.56297317  0.98885551  0.73858326     0.00600
C155        C  0.55165967  0.00597968  0.75425934    -0.11600
C156        C  0.56551701  0.02091686  0.77014247     0.03100
C157        C  0.59156038  0.01903315  0.77023289    -0.11000
H158        H  0.59792968  0.97283709  0.72751959     0.08700
H159        H  0.53159527  0.00755843  0.75436013     0.06200
H160        H  0.60242459  0.03069551  0.78241432     0.06100
C161        C  0.94804548  0.98397728  0.26518105     0.03100
C162        C  0.92198906  0.98391652  0.26654451    -0.13000
C163        C  0.90794348  0.00099813  0.25261448     0.00600
C164        C  0.92054971  0.01828002  0.23748376    -0.11600
C165        C  0.94663505  0.01782002  0.23572793     0.03100
C166        C  0.95997444  0.00082145  0.24977182    -0.11000
H167        H  0.91270192  0.97062923  0.27829728     0.08700
H168        H  0.91012499  0.03131166  0.22647980     0.06200
H169        H  0.98008085  0.00067112  0.24866981     0.06100
C170        C  0.26274225  0.33485052  0.98385698     0.03100
C171        C  0.25681127  0.32225631  0.00550818    -0.13000
C172        C  0.25273990  0.33474551  0.02765856     0.00600
C173        C  0.25416947  0.36070583  0.02814799    -0.11600
C174        C  0.26026898  0.37400907  0.00645633     0.03100
C175        C  0.26481470  0.36072002  0.98438051    -0.11000
H176        H  0.25561203  0.30225678  0.00519875     0.08700
H177        H  0.25052075  0.37041353  0.04523694     0.06200
H178        H  0.26987335  0.37042793  0.96765438     0.06100
C179        C  0.25857414  0.90405966  0.00756060     0.03100
C180        C  0.27227523  0.91610735  0.98880447    -0.13000
C181        C  0.27180332  0.94203286  0.98695585     0.00600
C182        C  0.25714522  0.95559770  0.00320075    -0.11600
C183        C  0.24321579  0.94405732  0.02159389     0.03100
C184        C  0.24434693  0.91828113  0.02417131    -0.11000
H185        H  0.28340385  0.90545153  0.97604723     0.08700
H186        H  0.25666534  0.97555767  0.00155573     0.06200
H187        H  0.23355164  0.90926470  0.03843093     0.06100
C188        C  0.34212996  0.97471953  0.26007925     0.03100
C189        C  0.36817243  0.97612159  0.26089836    -0.13000
C190        C  0.38061668  0.99845002  0.25506428     0.00600
C191        C  0.36630620  0.01953012  0.24902675    -0.11600
C192        C  0.34016339  0.01820708  0.24879933     0.03100
C193        C  0.32855956  0.99569025  0.25393867    -0.11000
H194        H  0.37865723  0.95993170  0.26613699     0.08700
H195        H  0.37539967  0.03681262  0.24457819     0.06200
H196        H  0.30846180  0.99451811  0.25351739     0.06100
C197        C  0.00605745  0.25556570  0.90781054     0.03100
C198        C  0.99032491  0.27140738  0.92142227    -0.13000
C199        C  0.99195275  0.27234513  0.94736289     0.00600
C200        C  0.00826756  0.25649615  0.95952831    -0.11600
C201        C  0.02344764  0.24019558  0.94659333     0.03100
C202        C  0.02282780  0.24011876  0.92062413    -0.11000
H203        H  0.97754548  0.28346858  0.91186185     0.08700
H204        H  0.00904623  0.25669321  0.97954199     0.06200
H205        H  0.03479757  0.22770631  0.91047967     0.06100
C206        C  0.98399023  0.25585634  0.33882542     0.03100
C207        C  0.00597082  0.25090705  0.32611824    -0.13000
C208        C  0.02830798  0.24683805  0.33843335     0.00600
C209        C  0.02883380  0.24775662  0.36436114    -0.11600
C210        C  0.00701498  0.25314458  0.37785317     0.03100
C211        C  0.98455651  0.25724783  0.36481700    -0.11000
H212        H  0.00574736  0.25022469  0.30611072     0.08700
H213        H  0.04610398  0.24428347  0.37396383     0.06200
H214        H  0.96769062  0.26144509  0.37480464     0.06100
O215        O  0.11303896  0.09993681  0.17020721    -0.78500
C216        C  0.17052991  0.08859656  0.11111277     0.82500
O217        O  0.19734431  0.14012687  0.18145786    -0.79600
O218        O  0.18858607  0.17277705  0.11009827    -0.81100
O219        O  0.10532946  0.17174724  0.11175425    -0.80900
O220        O  0.08981076  0.13115256  0.15659244    -0.79500
Zn221      Zn  0.14833765  0.10943028  0.15867951     1.55700
O222        O  0.13510795  0.15594987  0.08794064    -0.80900
Cd223      Cd  0.11507315  0.15808027  0.14681253     1.59700
Cd224      Cd  0.16987785  0.16276420  0.16762037     1.59600
O225        O  0.11266964  0.18322946  0.17613377    -0.80900
O226        O  0.14840948  0.14277892  0.14611597    -1.91400
Cd227      Cd  0.16229460  0.14454396  0.11233368     1.59900
O228        O  0.14849047  0.17723012  0.19588820    -0.80900
O229        O  0.17501705  0.10977623  0.10165657    -0.79500
C230        C  0.19610755  0.11751809  0.18791730     0.83000
C231        C  0.09181726  0.11004434  0.16679518     0.82700
O232        O  0.15878404  0.08635813  0.13142216    -0.78500
C233        C  0.11478668  0.16770499  0.09043545     0.83500
O234        O  0.17657158  0.10456912  0.18390036    -0.78600
C235        C  0.12639448  0.18562739  0.19529594     0.83600
C236        C  0.19269097  0.19105705  0.12450693     0.83900
O237        O  0.18541353  0.19096288  0.14691766    -0.81000
O238        O  0.40479856  0.83315738  0.61623127    -0.78500
C239        C  0.41734378  0.89441438  0.67192596     0.82500
O240        O  0.36464212  0.82041905  0.69956647    -0.79600
O241        O  0.33223942  0.89426213  0.69257486    -0.81100
O242        O  0.33501941  0.89260003  0.60888182    -0.80900
O243        O  0.37254702  0.84553687  0.59361161    -0.79500
Zn244      Zn  0.39599078  0.84625599  0.65123938     1.55700
O245        O  0.35035461  0.91626126  0.63908893    -0.80900
Cd246      Cd  0.34649583  0.85710090  0.61897136     1.59700
Cd247      Cd  0.34191486  0.83639600  0.67337784     1.59600
O248        O  0.31969024  0.82898576  0.61661578    -0.80900
O249        O  0.36219517  0.85800486  0.65211949    -1.91400
Cd250      Cd  0.36078353  0.89177074  0.66643493     1.59900
O251        O  0.32649664  0.80892485  0.65185259    -0.80900
O252        O  0.39610363  0.90265340  0.67847795    -0.79500
C253        C  0.38783256  0.81583071  0.69869223     0.83000
C254        C  0.39383881  0.83550039  0.59532304     0.82700
O255        O  0.41936887  0.87442575  0.65959733    -0.78500
C256        C  0.33955268  0.91387297  0.61825742     0.83500
O257        O  0.40118289  0.82238022  0.68024389    -0.78600
C258        C  0.31758019  0.80969013  0.63006998     0.83600
C259        C  0.31399016  0.87971758  0.69691330     0.83900
O260        O  0.31408720  0.85725704  0.68971579    -0.81000
O261        O  0.11966689  0.81319643  0.33406327    -0.78500
C262        C  0.18217097  0.80628293  0.38939404     0.82500
O263        O  0.10984258  0.85849995  0.41430151    -0.79600
O264        O  0.18247471  0.89251612  0.40047505    -0.81100
O265        O  0.17846770  0.88490435  0.31995139    -0.80900
O266        O  0.13441398  0.84212574  0.30860453    -0.79500
Zn267      Zn  0.13357421  0.82467695  0.36768896     1.55700
O268        O  0.20301140  0.86919280  0.34910784    -0.80900
Cd269      Cd  0.14366070  0.87122035  0.33120697     1.59700
Cd270      Cd  0.12372505  0.87952059  0.38572044     1.59600
O271        O  0.11346750  0.89534809  0.32723940    -0.80900
O272        O  0.14508248  0.85837912  0.36532831    -1.91400
Cd273      Cd  0.17931616  0.86136609  0.37798179     1.59900
O274        O  0.09534781  0.89334909  0.36418638    -0.80900
O275        O  0.19027521  0.82805656  0.39393252    -0.79500
C276        C  0.10516778  0.83542976  0.41556013     0.83000
C277        C  0.12334874  0.82160343  0.31224934     0.82700
O278        O  0.16233307  0.80272052  0.37698976    -0.78500
C279        C  0.20011001  0.88038688  0.32861635     0.83500
O280        O  0.11039398  0.82084716  0.39768389    -0.78600
C281        C  0.09504776  0.89969028  0.34151280     0.83600
C282        C  0.16746736  0.91019679  0.40495909     0.83900
O283        O  0.14446110  0.90859605  0.39960976    -0.81000
C284        C  0.00550757  0.74905707  0.60301054     0.03100
C285        C  0.98606443  0.73884904  0.58843511    -0.13000
C286        C  0.98742536  0.73947037  0.56238168     0.00600
C287        C  0.00840036  0.74978671  0.55124156    -0.11600
C288        C  0.02729267  0.76066463  0.56504616     0.03100
C289        C  0.02598332  0.76025614  0.59097059    -0.11000
H290        H  0.96993754  0.73082101  0.59727559     0.08700
H291        H  0.00967655  0.75022063  0.53125569     0.06200
H292        H  0.04052050  0.76902925  0.60169562     0.06100
C293        C  0.26011666  0.09522113  0.50359432     0.03100
C294        C  0.27504668  0.08155924  0.52012416    -0.13000
C295        C  0.27643691  0.05566088  0.51810001     0.00600
C296        C  0.26209042  0.04358787  0.50020995    -0.11600
C297        C  0.24659579  0.05667862  0.48432817     0.03100
C298        C  0.24579762  0.08252193  0.48577306    -0.11000
H299        H  0.28607655  0.09106325  0.53392167     0.08700
H300        H  0.26248640  0.02359969  0.49899469     0.06200
H301        H  0.23387451  0.09267485  0.47331993     0.06100
C302        C  0.26450730  0.66595449  0.52906171     0.03100
C303        C  0.25936208  0.67889645  0.50741761    -0.13000
C304        C  0.25361415  0.66667724  0.48542939     0.00600
C305        C  0.25310768  0.64069838  0.48508133    -0.11600
C306        C  0.25867507  0.62706374  0.50665655     0.03100
C307        C  0.26440536  0.63997840  0.52869252    -0.11000
H308        H  0.25931392  0.69892130  0.50786839     0.08700
H309        H  0.24822560  0.63116439  0.46816609     0.06200
H310        H  0.26862101  0.62992288  0.54543131     0.06100
C311        C  0.00550681  0.74811187  0.13087259     0.03100
C312        C  0.02669496  0.75441854  0.14494505    -0.13000
C313        C  0.02517107  0.75606789  0.17080212     0.00600
C314        C  0.00252204  0.75170409  0.18251177    -0.11600
C315        C  0.98129674  0.74545281  0.16905074     0.03100
C316        C  0.98281535  0.74346799  0.14320050    -0.11000
H317        H  0.04418031  0.75823400  0.13584853     0.08700
H318        H  0.00145439  0.75304159  0.20246549     0.06200
H319        H  0.96642899  0.73839160  0.13274770     0.06100
C320        C  0.13120206  0.00283579  0.75343703     0.03100
C321        C  0.14457071  0.98062186  0.74993211    -0.13000
C322        C  0.17064436  0.98047258  0.75137449     0.00600
C323        C  0.18325616  0.00257014  0.75584509    -0.11600
C324        C  0.17065800  0.02484004  0.75896060     0.03100
C325        C  0.14454394  0.02496679  0.75803915    -0.11000
H326        H  0.13477091  0.96356386  0.74604524     0.08700
H327        H  0.20336913  0.00246612  0.75673652     0.06200
H328        H  0.13471520  0.04214661  0.76082044     0.06100
C329        C  0.75185091  0.12705145  0.00501226     0.03100
C330        C  0.75792068  0.14027070  0.02678758    -0.13000
C331        C  0.75870190  0.16629464  0.02659355     0.00600
C332        C  0.75385823  0.17885053  0.00458219    -0.11600
C333        C  0.74755610  0.16627060  0.98298115     0.03100
C334        C  0.74643276  0.14034571  0.98321111    -0.11000
H335        H  0.76190487  0.13041818  0.04370338     0.08700
H336        H  0.75454503  0.19886831  0.00436160     0.06200
H337        H  0.74121135  0.13056659  0.96653351     0.06100
C338        C  0.52756583  0.73996265  0.84133939     0.03100
C339        C  0.50584920  0.74715156  0.82926740    -0.13000
C340        C  0.48479445  0.75422072  0.84246534     0.00600
C341        C  0.48535906  0.75406570  0.86842552    -0.11600
C342        C  0.50708950  0.74683431  0.88113829     0.03100
C343        C  0.52816325  0.73967641  0.86732697    -0.11000
H344        H  0.50540396  0.74753174  0.80924942     0.08700
H345        H  0.46919909  0.76006673  0.87864625     0.06200
H346        H  0.54497568  0.73411932  0.87673240     0.06100
C347        C  0.50787056  0.75751315  0.41176142     0.03100
C348        C  0.52689978  0.74802521  0.42717962    -0.13000
C349        C  0.52569262  0.75077832  0.45308513     0.00600
C350        C  0.50537603  0.76304124  0.46331590    -0.11600
C351        C  0.48645220  0.77271957  0.44871855     0.03100
C352        C  0.48744186  0.76969355  0.42286164    -0.11000
H353        H  0.54255077  0.73855501  0.41903624     0.08700
H354        H  0.50400540  0.76493471  0.48320395     0.06200
H355        H  0.47284275  0.77729896  0.41146013     0.06100
C356        C  0.74801242  0.88166370  0.50778315     0.03100
C357        C  0.75287524  0.86803395  0.48601085    -0.13000
C358        C  0.75401807  0.84207933  0.48671436     0.00600
C359        C  0.75066511  0.82993649  0.50916805    -0.11600
C360        C  0.74606922  0.84294014  0.53092650     0.03100
C361        C  0.74454454  0.86884109  0.53025610    -0.11000
H362        H  0.75569392  0.87753943  0.46866083     0.08700
H363        H  0.75168099  0.80994255  0.50973856     0.06200
H364        H  0.74054134  0.87892256  0.54705737     0.06100
C365        C  0.41229400  0.50441501  0.74999695     0.03100
C366        C  0.42618223  0.52343001  0.73852682    -0.13000
C367        C  0.45228404  0.52296002  0.73922118     0.00600
C368        C  0.46435134  0.50371045  0.75122578    -0.11600
C369        C  0.45105451  0.48484019  0.76261325     0.03100
C370        C  0.42503799  0.48514556  0.76214945    -0.11000
H371        H  0.41682095  0.53816826  0.72880903     0.08700
H372        H  0.48448750  0.50333569  0.75160151     0.06200
H373        H  0.41480193  0.47052682  0.77125855     0.06100
C374        C  0.85017699  0.52047255  0.74576972     0.03100
C375        C  0.87619925  0.51963232  0.74718095    -0.13000
C376        C  0.88818108  0.49784581  0.75501170     0.00600
C377        C  0.87370994  0.47699822  0.76143046    -0.11600
C378        C  0.84767282  0.47787992  0.75983137     0.03100
C379        C  0.83627557  0.49966578  0.75209602    -0.11000
H380        H  0.88703564  0.53567784  0.74197580     0.08700
H381        H  0.88265738  0.46020054  0.76752848     0.06200
H382        H  0.81618950  0.50052028  0.75105328     0.06100
C383        C  0.75803942  0.40745552  0.50106805     0.03100
C384        C  0.77069544  0.42119029  0.48270757    -0.13000
C385        C  0.76884597  0.44709937  0.48214893     0.00600
C386        C  0.75438095  0.45912789  0.49974560    -0.11600
C387        C  0.74196176  0.44607960  0.51812357     0.03100
C388        C  0.74390209  0.42021621  0.51900095    -0.11000
H389        H  0.78188846  0.41181755  0.46902736     0.08700
H390        H  0.75302977  0.47911388  0.49935252     0.06200
H391        H  0.73405313  0.41008323  0.53317744     0.06100
C392        C  0.66705597  0.52046202  0.26133342     0.03100
C393        C  0.68108687  0.49941874  0.25657042    -0.13000
C394        C  0.66987229  0.47664694  0.25138433     0.00600
C395        C  0.64380436  0.47526401  0.24997342    -0.11600
C396        C  0.62913830  0.49643954  0.25443167     0.03100
C397        C  0.64105257  0.51898329  0.26044262    -0.11000
H398        H  0.70115745  0.50081955  0.25720272     0.08700
H399        H  0.63500112  0.45781861  0.24550145     0.06200
H400        H  0.63018516  0.53526244  0.26452325     0.06100
O401        O  0.13909984  0.34318054  0.70092319    -0.78500
C402        C  0.20584761  0.37979677  0.68024147     0.82500
O403        O  0.10322588  0.39351515  0.64473137    -0.79600
O404        O  0.18989582  0.38989568  0.60758561    -0.81100
O405        O  0.16536114  0.30034764  0.63396087    -0.80900
O406        O  0.12135205  0.31484180  0.67666122    -0.79500
Zn407      Zn  0.14989272  0.37063711  0.67823151     1.55700
O408        O  0.19508598  0.32426067  0.61776109    -0.80900
Cd409      Cd  0.13705169  0.32456022  0.64248231     1.59700
Cd410      Cd  0.13136358  0.37942760  0.62394820     1.59600
O411        O  0.11338839  0.32198308  0.61159750    -0.80900
O412        O  0.15143432  0.35815191  0.64496923    -1.91400
Cd413      Cd  0.18546932  0.35933207  0.63144195     1.59900
O414        O  0.11694499  0.35946426  0.59507181    -0.80900
O415        O  0.20902540  0.36820180  0.65999348    -0.79500
C416        C  0.10284300  0.39958319  0.66742798     0.83000
C417        C  0.12598442  0.32370556  0.69813284     0.82700
O418        O  0.18412329  0.38381107  0.68893645    -0.78500
C419        C  0.18581113  0.30290080  0.62232822     0.83500
O420        O  0.12118444  0.39511322  0.68173051    -0.78600
C421        C  0.10992169  0.33702947  0.59371133     0.83600
C422        C  0.17548780  0.40833154  0.60403130     0.83900
O423        O  0.15280614  0.40764410  0.61056554    -0.81000
O424        O  0.63574924  0.16194198  0.30447772    -0.78500
C425        C  0.70078566  0.12137876  0.32795031     0.82500
O426        O  0.59498214  0.11442977  0.35963223    -0.79600
O427        O  0.67997540  0.11188135  0.40025632    -0.81100
O428        O  0.66547464  0.20254870  0.37170611    -0.80900
O429        O  0.62079863  0.19175114  0.32867686    -0.79500
Zn430      Zn  0.64477447  0.13376947  0.32748814     1.55700
O431        O  0.69158282  0.17666104  0.39049451    -0.80900
Cd432      Cd  0.63512407  0.18086801  0.36305366     1.59700
Cd433      Cd  0.62331103  0.12691280  0.38157664     1.59600
O434        O  0.61165880  0.18620832  0.39368087    -0.80900
O435        O  0.64620065  0.14610000  0.36102950    -1.91400
Cd436      Cd  0.67945099  0.14239518  0.37625513     1.59900
O437        O  0.60988677  0.14849589  0.40989402    -0.80900
O438        O  0.70366847  0.13124634  0.34914570    -0.79500
C439        C  0.59524941  0.10726437  0.33722389     0.83000
C440        C  0.62456983  0.18252301  0.30721376     0.82700
O441        O  0.67934642  0.11981383  0.31766388    -0.78500
C442        C  0.68476641  0.19859949  0.38478668     0.83500
O443        O  0.61452307  0.11017595  0.32361761    -0.78600
C444        C  0.60579863  0.17161266  0.41132763     0.83600
C445        C  0.66388393  0.09474244  0.40355126     0.83900
O446        O  0.64152637  0.09713053  0.39632620    -0.81000
C447        C  0.50297513  0.25168510  0.60082683     0.03100
C448        C  0.48487148  0.26593047  0.58842796    -0.13000
C449        C  0.48635619  0.26940410  0.56272393     0.00600
C450        C  0.50541342  0.25814986  0.54946396    -0.11600
C451        C  0.52299261  0.24335254  0.56111945     0.03100
C452        C  0.52191128  0.24020162  0.58688120    -0.11000
H453        H  0.47014785  0.27472819  0.59876185     0.08700
H454        H  0.50622854  0.26049009  0.52959040     0.06200
H455        H  0.53556913  0.22875597  0.59598569     0.06100
O456        O  0.36998174  0.34280909  0.30708423    -0.78500
C457        C  0.30634379  0.38466402  0.33023246     0.82500
O458        O  0.41106498  0.39336951  0.36157651    -0.79600
O459        O  0.32527778  0.39240671  0.40208359    -0.81100
O460        O  0.34460124  0.30284281  0.37428261    -0.80900
O461        O  0.38879765  0.31563161  0.33171532    -0.79500
Zn462      Zn  0.36200932  0.37169103  0.32966563     1.55700
O463        O  0.31657315  0.32757852  0.39183884    -0.80900
Cd464      Cd  0.37376028  0.32611506  0.36594249     1.59700
Cd465      Cd  0.38245642  0.38116788  0.38334278     1.59600
O466        O  0.39669508  0.32294962  0.39729968    -0.80900
O467        O  0.36090895  0.36008336  0.36323109    -1.91400
Cd468      Cd  0.32734071  0.36223085  0.37775692     1.59900
O469        O  0.39622436  0.36117816  0.41254879    -0.80900
O470        O  0.30309620  0.37282078  0.35032253    -0.79500
C471        C  0.41158382  0.39821045  0.33857644     0.83000
C472        C  0.38323724  0.32350780  0.31009774     0.82700
O473        O  0.32801664  0.38731160  0.32071606    -0.78500
C474        C  0.32476247  0.30596950  0.38671905     0.83500
O475        O  0.39277704  0.39396873  0.32470282    -0.78600
C476        C  0.40140982  0.33834079  0.41467385     0.83600
C477        C  0.33983493  0.41101819  0.40438357     0.83900
O478        O  0.36212885  0.41038173  0.39656278    -0.81000
C479        C  0.56230808  0.47441315  0.26305429     0.03100
C480        C  0.58836585  0.47534884  0.26419601    -0.13000
C481        C  0.60147820  0.49507304  0.25300248     0.00600
C482        C  0.58793294  0.51389707  0.24096315    -0.11600
C483        C  0.56188142  0.51304975  0.24030435     0.03100
C484        C  0.54945955  0.49315555  0.25103941    -0.11000
H485        H  0.59828801  0.46109400  0.27408042     0.08700
H486        H  0.59754837  0.52924790  0.23241452     0.06200
H487        H  0.52933070  0.49253553  0.25055036     0.06100
C488        C  0.48964856  0.73723779  0.94883061     0.03100
C489        C  0.50932917  0.74935534  0.96045617    -0.13000
C490        C  0.52804924  0.76097448  0.94703272     0.00600
C491        C  0.52743699  0.76011087  0.92107909    -0.11600
C492        C  0.50798130  0.74747387  0.90871728     0.03100
C493        C  0.48905626  0.73604768  0.92286702    -0.11000
H494        H  0.50987511  0.75016019  0.98046657     0.08700
H495        H  0.54179352  0.76940713  0.91060295     0.06200
H496        H  0.47389117  0.72653724  0.91375073     0.06100
O497        O  0.35362869  0.58622331  0.13488089    -0.78500
C498        C  0.41934110  0.60636438  0.16861647     0.82500
O499        O  0.31698457  0.64296591  0.18730398    -0.79600
O500        O  0.40521829  0.67829809  0.17950239    -0.81100
O501        O  0.37879270  0.65274965  0.09115116    -0.80900
O502        O  0.33566208  0.60926846  0.10599687    -0.79500
Zn503      Zn  0.36347406  0.60952010  0.16206735     1.55700
O504        O  0.40776603  0.67030746  0.11491006    -0.80900
Cd505      Cd  0.35081777  0.64380451  0.11590057     1.59700
Cd506      Cd  0.34511522  0.66435123  0.17178069     1.59600
O507        O  0.32735027  0.67423697  0.11323598    -0.80900
O508        O  0.36462599  0.64264373  0.14975210    -1.91400
Cd509      Cd  0.39907645  0.65509205  0.14929415     1.59900
O510        O  0.33000351  0.69241088  0.15023030    -0.80900
O511        O  0.42259067  0.62592136  0.15593432    -0.79500
C512        C  0.31639711  0.61980509  0.19175102     0.83000
C513        C  0.34091226  0.58811997  0.11514290     0.82700
O514        O  0.39761102  0.59895360  0.17474687    -0.78500
C515        C  0.39866962  0.66541309  0.09362476     0.83500
O516        O  0.33450981  0.60576343  0.18592252    -0.78600
C517        C  0.32363842  0.69273835  0.12748542     0.83600
C518        C  0.39200027  0.68366948  0.19835146     0.83900
O519        O  0.36874186  0.67885310  0.19894660    -0.81000
C520        C  0.26942380  0.56047545  0.48622246     0.03100
C521        C  0.25677591  0.54763298  0.50459976    -0.13000
C522        C  0.24498247  0.55996581  0.52383980     0.00600
C523        C  0.24564948  0.58593009  0.52473000    -0.11600
C524        C  0.25820696  0.59945914  0.50614557     0.03100
C525        C  0.27020112  0.58641720  0.48690644    -0.11000
H526        H  0.25628584  0.52760285  0.50404111     0.08700
H527        H  0.23622944  0.59549746  0.53955137     0.06200
H528        H  0.28022394  0.59634661  0.47270358     0.06100
O529        O  0.59097967  0.87383430  0.15787323    -0.78500
C530        C  0.61067091  0.83879783  0.09260570     0.82500
O531        O  0.64737153  0.81998269  0.19449133    -0.79600
O532        O  0.68300806  0.82856050  0.10704653    -0.81100
O533        O  0.65927617  0.91667630  0.13584997    -0.80900
O534        O  0.61519045  0.90079915  0.17773748    -0.79500
Zn535      Zn  0.61376671  0.84606725  0.14839136     1.55700
O536        O  0.67324832  0.89402646  0.10433065    -0.80900
Cd537      Cd  0.64978148  0.89126403  0.16289433     1.59700
Cd538      Cd  0.66888302  0.83569187  0.16677383     1.59600
O539        O  0.67953109  0.89272789  0.18784151    -0.80900
O540        O  0.64742437  0.85808317  0.14759024    -1.91400
Cd541      Cd  0.65958981  0.85882044  0.11320522     1.59900
O542        O  0.69763289  0.85612553  0.18239855    -0.80900
O543        O  0.63036102  0.85156534  0.08969966    -0.79500
C544        C  0.62396101  0.81635060  0.19553259     0.83000
C545        C  0.59365452  0.89268927  0.17175778     0.82700
O546        O  0.60295372  0.83276838  0.11416757    -0.78500
C547        C  0.66959487  0.91497587  0.11470564     0.83500
O548        O  0.60959283  0.82285245  0.17789215    -0.78600
C549        C  0.69794944  0.87816938  0.19079564     0.83600
C550        C  0.68799616  0.80959167  0.12023312     0.83900
O551        O  0.68300931  0.80891878  0.14327048    -0.81000
C552        C  0.74992610  0.66428717  0.02417177     0.03100
C553        C  0.74946177  0.63830055  0.02415790    -0.13000
C554        C  0.75919591  0.62500087  0.00389828     0.00600
C555        C  0.76945145  0.63807662  0.98379335    -0.11600
C556        C  0.77052011  0.66398046  0.98420028     0.03100
C557        C  0.76066685  0.67679592  0.00431553    -0.11000
H558        H  0.74137117  0.62851322  0.03961942     0.08700
H559        H  0.77733383  0.62812662  0.96833486     0.06200
H560        H  0.76127568  0.69681911  0.00446730     0.06100
O561        O  0.87632336  0.16142724  0.70050717    -0.78500
C562        C  0.81177643  0.12131479  0.67949519     0.82500
O563        O  0.91346030  0.10864265  0.64287111    -0.79600
O564        O  0.82620856  0.11632423  0.60626401    -0.81100
O565        O  0.85198309  0.20358819  0.63130609    -0.80900
O566        O  0.89287576  0.19082991  0.67681561    -0.79500
Zn567      Zn  0.86761660  0.13324653  0.67747173     1.55700
O568        O  0.81978189  0.18024259  0.61952209    -0.80900
Cd569      Cd  0.87956814  0.17974023  0.64215205     1.59700
Cd570      Cd  0.88554683  0.12463931  0.62238496     1.59600
O571        O  0.90498046  0.18271385  0.61306950    -0.80900
O572        O  0.86553578  0.14584506  0.64419842    -1.91400
Cd573      Cd  0.83071238  0.14514280  0.63192688     1.59900
O574        O  0.90153890  0.14588484  0.59497642    -0.80900
O575        O  0.80762508  0.13427624  0.66030829    -0.79500
C576        C  0.91515068  0.10409578  0.66589342     0.83000
C577        C  0.88809656  0.18180029  0.69812248     0.82700
O578        O  0.83390660  0.11767219  0.68743505    -0.78500
C579        C  0.83049466  0.20127430  0.62170504     0.83500
O580        O  0.89791643  0.11034098  0.68088261    -0.78600
C581        C  0.90902491  0.16825689  0.59483233     0.83600
C582        C  0.84017616  0.09803962  0.60078050     0.83900
O583        O  0.86309368  0.09777364  0.60673689    -0.81000
C584        C  0.66857575  0.97670351  0.76614779     0.03100
C585        C  0.68283793  0.99495352  0.75479051    -0.13000
C586        C  0.67198366  0.01529594  0.74313570     0.00600
C587        C  0.64592325  0.01771229  0.74378152    -0.11600
C588        C  0.63103524  0.99933006  0.75504885     0.03100
C589        C  0.64255952  0.97870922  0.76612816    -0.11000
H590        H  0.70288369  0.99334177  0.75539915     0.08700
H591        H  0.63719946  0.03340154  0.73501302     0.06200
H592        H  0.63139813  0.96458329  0.77493544     0.06100
O593        O  0.85663773  0.91908057  0.88367357    -0.78500
C594        C  0.92076624  0.89890321  0.84608482     0.82500
O595        O  0.81717215  0.86246051  0.83211548    -0.79600
O596        O  0.90573899  0.82885339  0.83484815    -0.81100
O597        O  0.88261524  0.85298559  0.92518463    -0.80900
O598        O  0.83778766  0.89493456  0.91125438    -0.79500
Zn599      Zn  0.86503118  0.89618372  0.85550628     1.55700
O600        O  0.91025711  0.83498315  0.90036107    -0.80900
Cd601      Cd  0.85369232  0.86099279  0.90130159     1.59700
Cd602      Cd  0.84611716  0.84132290  0.84588692     1.59600
O603        O  0.83122889  0.82966433  0.90447095    -0.80900
O604        O  0.86647189  0.86293637  0.86725902    -1.91400
Cd605      Cd  0.90078673  0.85069084  0.86633692     1.59900
O606        O  0.83291434  0.81215178  0.86716941    -0.80900
O607        O  0.92429582  0.87989215  0.85945791    -0.79500
C608        C  0.81638310  0.88561897  0.82773582     0.83000
C609        C  0.84327056  0.91639732  0.90291744     0.82700
O610        O  0.89883643  0.90631826  0.84073841    -0.78500
C611        C  0.90210157  0.84004049  0.92198312     0.83500
O612        O  0.83464774  0.89985102  0.83308514    -0.78600
C613        C  0.82754057  0.81120918  0.89011607     0.83600
C614        C  0.89156220  0.82400837  0.81648461     0.83900
O615        O  0.86825904  0.82822658  0.81726418    -0.81000
O616        O  0.13751713  0.65517164  0.80973836    -0.78500
C617        C  0.20618054  0.62011938  0.82956898     0.82500
O618        O  0.10468020  0.60259404  0.86682680    -0.79600
O619        O  0.19181101  0.60847660  0.90211144    -0.81100
O620        O  0.16674820  0.69793194  0.87690679    -0.80900
O621        O  0.12173284  0.68415390  0.83430141    -0.79500
Zn622      Zn  0.14992216  0.62809026  0.83224825     1.55700
O623        O  0.19522073  0.67352249  0.89429471    -0.80900
Cd624      Cd  0.13813428  0.67380459  0.86826879     1.59700
Cd625      Cd  0.13253957  0.61828279  0.88745782     1.59600
O626        O  0.11542562  0.67631856  0.89980823    -0.80900
O627        O  0.15197955  0.63998345  0.86575319    -1.91400
Cd628      Cd  0.18626916  0.63904665  0.87896341     1.59900
O629        O  0.11829816  0.63877848  0.91643720    -0.80900
O630        O  0.20974260  0.63073271  0.85030064    -0.79500
C631        C  0.10442383  0.59633992  0.84413067     0.83000
C632        C  0.12510313  0.67497029  0.81272445     0.82700
O633        O  0.18439438  0.61671458  0.82067271    -0.78500
C634        C  0.18632193  0.69497740  0.88986088     0.83500
O635        O  0.12222315  0.60211030  0.82957056    -0.78600
C636        C  0.11190197  0.66140744  0.91783005     0.83600
C637        C  0.17779276  0.58980274  0.90608305     0.83900
O638        O  0.15479038  0.59025634  0.90061499    -0.81000
C639        C  0.00424002  0.74902673  0.63068261     0.03100
C640        C  0.98356715  0.75930866  0.64309484    -0.13000
C641        C  0.98328292  0.76082571  0.66907161     0.00600
C642        C  0.00335705  0.75174793  0.68253439    -0.11600
C643        C  0.02400731  0.74144855  0.67089353     0.03100
C644        C  0.02439920  0.73999967  0.64488280    -0.11000
H645        H  0.96823265  0.76680899  0.63261205     0.08700
H646        H  0.00298064  0.75298956  0.70252129     0.06200
H647        H  0.04044775  0.73226375  0.63572447     0.06100
C648        C  0.95560399  0.51259058  0.77062003     0.03100
C649        C  0.92956571  0.51409081  0.76977905    -0.13000
C650        C  0.91574337  0.49663913  0.75594819     0.00600
C651        C  0.92842117  0.47805891  0.74274265    -0.11600
C652        C  0.95442318  0.47692097  0.74353805     0.03100
C653        C  0.96767399  0.49404370  0.75755386    -0.11000
H654        H  0.92014873  0.52848952  0.77996831     0.08700
H655        H  0.91816221  0.46482462  0.73169234     0.06200
H656        H  0.98779124  0.49313379  0.75802032     0.06100
C657        C  0.34596457  0.48126399  0.74300460     0.03100
C658        C  0.33261835  0.50242813  0.74891027    -0.13000
C659        C  0.34454452  0.52478147  0.75434572     0.00600
C660        C  0.37071732  0.52555484  0.75457527    -0.11600
C661        C  0.38463203  0.50415252  0.74897206     0.03100
C662        C  0.37195665  0.48210493  0.74284242    -0.11000
H663        H  0.31253125  0.50131810  0.74934024     0.08700
H664        H  0.38018307  0.54257981  0.75932319     0.06200
H665        H  0.38225017  0.46564064  0.73806156     0.06100
C666        C  0.72753536  0.94647635  0.48973973     0.03100
C667        C  0.74058264  0.96067783  0.50691068    -0.13000
C668        C  0.75680615  0.94986988  0.52375387     0.00600
C669        C  0.75947078  0.92401585  0.52396096    -0.11600
C670        C  0.74602102  0.90914668  0.50704107     0.03100
C671        C  0.73038790  0.92069439  0.48957057    -0.11000
H672        H  0.73869121  0.98061685  0.50659866     0.08700
H673        H  0.77199578  0.91555306  0.53707300     0.06200
H674        H  0.72015340  0.90969299  0.47628561     0.06100
C675        C  0.00775924  0.25412329  0.40545627     0.03100
C676        C  0.02670139  0.26750713  0.41786632    -0.13000
C677        C  0.02774909  0.26768437  0.44382959     0.00600
C678        C  0.01002021  0.25462921  0.45727068    -0.11600
C679        C  0.99125547  0.24131835  0.44555932     0.03100
C680        C  0.98996440  0.24107546  0.41962179    -0.11000
H681        H  0.04049362  0.27765673  0.40743440     0.08700
H682        H  0.01092938  0.25470875  0.47728880     0.06200
H683        H  0.97553806  0.23044212  0.41055520     0.06100
C684        C  0.00534110  0.25544659  0.88028039     0.03100
C685        C  0.98341150  0.24878238  0.86745892    -0.13000
C686        C  0.98305365  0.24856574  0.84145239     0.00600
C687        C  0.00445251  0.25494618  0.82847383    -0.11600
C688        C  0.02633449  0.26142639  0.84068336     0.03100
C689        C  0.02679092  0.26180419  0.86664896    -0.11000
H690        H  0.96691822  0.24353969  0.87761505     0.08700
H691        H  0.00410725  0.25467929  0.80844486     0.06200
H692        H  0.04370711  0.26696456  0.87618623     0.06100
C693        C  0.49290042  0.74042726  0.34451779     0.03100
C694        C  0.51452292  0.74864457  0.33288606    -0.13000
C695        C  0.53361384  0.76016810  0.34593704     0.00600
C696        C  0.53133605  0.76327466  0.37166504    -0.11600
C697        C  0.50973408  0.75502083  0.38418545     0.03100
C698        C  0.49026490  0.74405256  0.37022754    -0.11000
H699        H  0.51630650  0.74658651  0.31303916     0.08700
H700        H  0.54617907  0.77217849  0.38185307     0.06200
H701        H  0.47360095  0.73766915  0.37940874     0.06100
C702        C  0.88021408  0.00018538  0.25337752     0.03100
C703        C  0.86634651  0.02174481  0.25855386    -0.13000
C704        C  0.84019875  0.02079986  0.25957237     0.00600
C705        C  0.82825339  0.99810726  0.25578251    -0.11600
C706        C  0.84141320  0.97661685  0.25035823     0.03100
C707        C  0.86746470  0.97768297  0.24901384    -0.11000
H708        H  0.87585845  0.03909243  0.26180915     0.08700
H709        H  0.80820000  0.99707868  0.25698801     0.06200
H710        H  0.87776321  0.96110215  0.24467071     0.06100
C711        C  0.25839253  0.87667235  0.00956837     0.03100
C712        C  0.24780248  0.86211978  0.99059497    -0.13000
C713        C  0.24579109  0.83634350  0.99333818     0.00600
C714        C  0.25536216  0.82525300  0.01460098    -0.11600
C715        C  0.26652990  0.83919488  0.03324005     0.03100
C716        C  0.26778218  0.86501357  0.03093335    -0.11000
H717        H  0.24038512  0.87089598  0.97423520     0.08700
H718        H  0.25462288  0.80532665  0.01648550     0.06200
H719        H  0.27625288  0.87592451  0.04545866     0.06100
C720        C  0.75470081  0.34028786  0.47978483     0.03100
C721        C  0.76022170  0.32810701  0.50176895    -0.13000
C722        C  0.76470339  0.34101207  0.52369609     0.00600
C723        C  0.76449860  0.36700978  0.52336579    -0.11600
C724        C  0.75914328  0.37988981  0.50128045     0.03100
C725        C  0.75403773  0.36625770  0.47953583    -0.11000
H726        H  0.76063488  0.30809120  0.50186205     0.08700
H727        H  0.76825114  0.37714536  0.54021318     0.06200
H728        H  0.74930888  0.37577537  0.46261658     0.06100
C729        C  0.16553930  0.48551630  0.26301521     0.03100
C730        C  0.13948723  0.48641490  0.26527661    -0.13000
C731        C  0.12617201  0.50752332  0.25739452     0.00600
C732        C  0.13949352  0.52789444  0.24769269    -0.11600
C733        C  0.16546269  0.52679590  0.24519077     0.03100
C734        C  0.17806138  0.50571191  0.25287439    -0.11000
H735        H  0.12963378  0.47078279  0.27302050     0.08700
H736        H  0.12967421  0.54415169  0.24147978     0.06200
H737        H  0.19811984  0.50520701  0.25123328     0.06100
C738        C  0.26152324  0.40164761  0.00652854     0.03100
C739        C  0.27283188  0.41478650  0.02625748    -0.13000
C740        C  0.27370919  0.44079649  0.02593514     0.00600
C741        C  0.26393723  0.45346620  0.00576269    -0.11600
C742        C  0.25236544  0.44104750  0.98640418     0.03100
C743        C  0.25099458  0.41515698  0.98677683    -0.11000
H744        H  0.28071569  0.40493798  0.04175385     0.08700
H745        H  0.26457946  0.47349434  0.00552551     0.06200
H746        H  0.24144254  0.40563753  0.97194569     0.06100
C747        C  0.40841871  0.99955220  0.25528358     0.03100
C748        C  0.42242865  0.98011653  0.24475324    -0.13000
C749        C  0.44850956  0.98067072  0.24549536     0.00600
C750        C  0.46055658  0.00079968  0.25624426    -0.11600
C751        C  0.44733174  0.02033506  0.26649654     0.03100
C752        C  0.42119508  0.01973163  0.26621571    -0.11000
H753        H  0.41313055  0.96461918  0.23607145     0.08700
H754        H  0.48069166  0.00131953  0.25659739     0.06200
H755        H  0.41094451  0.03470658  0.27460377     0.06100
C756        C  0.50495709  0.25814410  0.12788478     0.03100
C757        C  0.48312573  0.26289076  0.14166179    -0.13000
C758        C  0.48344657  0.26172208  0.16768479     0.00600
C759        C  0.50567062  0.25610804  0.17971027    -0.11600
C760        C  0.52747373  0.25140593  0.16663824     0.03100
C761        C  0.52711258  0.25232828  0.14066006    -0.11000
H762        H  0.46602292  0.26738778  0.13219677     0.08700
H763        H  0.50602317  0.25533633  0.19971396     0.06200
H764        H  0.54389775  0.24834670  0.13044734     0.06100
C765        C  0.25959631  0.12269704  0.50458959     0.03100
C766        C  0.25357602  0.13512290  0.52674193    -0.13000
C767        C  0.25276859  0.16107402  0.52735659     0.00600
C768        C  0.25776231  0.17440886  0.50589340    -0.11600
C769        C  0.26351907  0.16257391  0.48372622     0.03100
C770        C  0.26465228  0.13665049  0.48311216    -0.11000
H771        H  0.24935168  0.12469615  0.54326535     0.08700
H772        H  0.25703914  0.19441495  0.50645297     0.06200
H773        H  0.26930241  0.12738003  0.46601013     0.06100
C774        C  0.00682635  0.74699656  0.10336672     0.03100
C775        C  0.98899267  0.75957219  0.08901717    -0.13000
C776        C  0.98978454  0.75843767  0.06313243     0.00600
C777        C  0.00848606  0.74487727  0.05161430    -0.11600
C778        C  0.02653967  0.73254837  0.06528790     0.03100
C779        C  0.02579280  0.73357667  0.09125876    -0.11000
H780        H  0.97456854  0.77021584  0.09794223     0.08700
H781        H  0.00922328  0.74416503  0.03161421     0.06200
H782        H  0.03968270  0.72388360  0.10191999     0.06100
C783        C  0.75081613  0.09947272  0.00479055     0.03100
C784        C  0.73633803  0.08640612  0.02229577    -0.13000
C785        C  0.73381238  0.06055735  0.02055151     0.00600
C786        C  0.74646573  0.04792519  0.00198930    -0.11600
C787        C  0.76126000  0.06024985  0.98481624     0.03100
C788        C  0.76346887  0.08609377  0.98621302    -0.11000
H789        H  0.72637328  0.09633279  0.03651448     0.08700
H790        H  0.74505491  0.02795411  0.00114174     0.06200
H791        H  0.77480582  0.09575965  0.97282328     0.06100
C792        C  0.06338853  0.98377448  0.76232226     0.03100
C793        C  0.05145264  0.00184513  0.74835202    -0.13000
C794        C  0.06470616  0.02042119  0.73638668     0.00600
C795        C  0.09074553  0.02106457  0.73825565    -0.11600
C796        C  0.10344395  0.00284284  0.75206759     0.03100
C797        C  0.08944412  0.98434665  0.76429157    -0.11000
H798        H  0.03135779  0.00176194  0.74707016     0.08700
H799        H  0.10102918  0.03533983  0.72868064     0.06200
H800        H  0.09875359  0.97046319  0.77524327     0.06100
C801        C  0.20017984  0.76208507  0.90500302    -0.10900
C802        C  0.21365452  0.75980969  0.92699993     0.06300
C803        C  0.22018360  0.73617607  0.93536881    -0.09600
C804        C  0.21263711  0.71507741  0.92242207    -0.11300
C805        C  0.19794422  0.71719737  0.90111098    -0.01100
C806        C  0.19219723  0.74096333  0.89228176    -0.10200
C807        C  0.21930645  0.78170697  0.94239879     0.06300
H808        H  0.23063199  0.73406516  0.95231363     0.08200
H809        H  0.21724521  0.69710046  0.92979805     0.11700
H810        H  0.18090962  0.74322417  0.87590718     0.12000
H811        H  0.19489000  0.78014251  0.89830194     0.08300
C812        C  0.23499907  0.80067421  0.93395199    -0.10900
C813        C  0.24242264  0.81974143  0.94998645    -0.10200
C814        C  0.23404345  0.82009346  0.97454241    -0.01100
C815        C  0.21695168  0.80202050  0.98225461    -0.11300
C816        C  0.20980682  0.78296144  0.96642317    -0.09700
H817        H  0.24244749  0.80003487  0.91541040     0.08300
H818        H  0.25577345  0.83331417  0.94368378     0.12000
H819        H  0.21005843  0.80198932  0.00102856     0.11700
H820        H  0.19739105  0.76872361  0.97316278     0.08200
C821        C  0.22376356  0.54238952  0.93056492    -0.10900
C822        C  0.20873736  0.52116773  0.93308723     0.06300
C823        C  0.18346205  0.52304667  0.92688854    -0.09600
C824        C  0.17346303  0.54540334  0.91875826    -0.11300
C825        C  0.18843943  0.56658542  0.91628232    -0.01100
C826        C  0.21377914  0.56474480  0.92216325    -0.10200
C827        C  0.21905191  0.49758557  0.94319489     0.06300
H828        H  0.17131749  0.50714859  0.92805589     0.08200
H829        H  0.15393917  0.54594944  0.91406964     0.11700
H830        H  0.22592732  0.58059007  0.92029404     0.12000
H831        H  0.24320497  0.54195089  0.93553873     0.08300
C832        C  0.24398498  0.49095440  0.93915532    -0.10900
C833        C  0.25439964  0.47073209  0.95142374    -0.10200
C834        C  0.24001560  0.45636118  0.96754638    -0.01100
C835        C  0.21478536  0.46178881  0.97029893    -0.11300
C836        C  0.20442430  0.48219735  0.95835277    -0.09700
H837        H  0.25574727  0.50189913  0.92722458     0.08300
H838        H  0.27406949  0.46717408  0.94949300     0.12000
H839        H  0.20357960  0.45143289  0.98327326     0.11700
H840        H  0.18531590  0.48674650  0.96234435     0.08200
C841        C  0.08920747  0.66387276  0.98444944    -0.10900
C842        C  0.08245434  0.68877922  0.98712428     0.06300
C843        C  0.08507179  0.70448785  0.96658117    -0.09600
C844        C  0.09420218  0.69558532  0.94405561    -0.11300
C845        C  0.10095144  0.67068492  0.94137205    -0.01100
C846        C  0.09836155  0.65496421  0.96192054    -0.10200
C847        C  0.07174293  0.69825903  0.01077857     0.06300
H848        H  0.07963250  0.72366641  0.96775470     0.08200
H849        H  0.09602436  0.70827656  0.92874157     0.11700
H850        H  0.10361682  0.63573304  0.96069469     0.12000
H851        H  0.08765658  0.65128303  0.99987328     0.08300
C852        C  0.05444515  0.68411687  0.02424824    -0.10900
C853        C  0.04148251  0.69449368  0.04415421    -0.10200
C854        C  0.04572809  0.71909637  0.05116029    -0.01100
C855        C  0.06422211  0.73264727  0.03892198    -0.11300
C856        C  0.07716814  0.72232967  0.01904551    -0.09700
H857        H  0.04962912  0.66561319  0.01835120     0.08300
H858        H  0.02678398  0.68394800  0.05283266     0.12000
H859        H  0.06739154  0.75183784  0.04363529     0.11700
H860        H  0.09068324  0.73360523  0.00945459     0.08200
C861        C  0.26872269  0.59099365  0.81840316    -0.10900
C862        C  0.27046210  0.59075907  0.79249174     0.06300
C863        C  0.25076385  0.60107316  0.77876951    -0.09600
C864        C  0.22970138  0.61053987  0.79061784    -0.11300
C865        C  0.22820748  0.61060471  0.81643616    -0.01100
C866        C  0.24806392  0.60104922  0.83017058    -0.10200
C867        C  0.29170349  0.57799675  0.78009992     0.06300
H868        H  0.25146771  0.60175795  0.75884038     0.08200
H869        H  0.21471373  0.61802072  0.77963773     0.11700
H870        H  0.24724453  0.60059754  0.85013796     0.12000
H871        H  0.28291472  0.58266384  0.82976363     0.08300
C872        C  0.31514540  0.57610990  0.79162062    -0.10900
C873        C  0.33339536  0.56027285  0.78222624    -0.10200
C874        C  0.32874274  0.54629816  0.76090226    -0.01100
C875        C  0.30644346  0.55022445  0.74799647    -0.11300
C876        C  0.28806905  0.56554644  0.75759720    -0.09700
H877        H  0.31910474  0.58606588  0.80849505     0.08300
H878        H  0.35042601  0.55776594  0.79251885     0.12000
H879        H  0.30251265  0.54009432  0.73118673     0.11700
H880        H  0.27046315  0.56625189  0.74804425     0.08200
C881        C  0.05765906  0.56797532  0.79978057    -0.10900
C882        C  0.03757819  0.56271263  0.81556349     0.06300
C883        C  0.04040668  0.56717958  0.84095333    -0.09600
C884        C  0.06243303  0.57723792  0.85024631    -0.11300
C885        C  0.08225314  0.58315632  0.83440395    -0.01100
C886        C  0.07972180  0.57809722  0.80908228    -0.10200
C887        C  0.01387945  0.55244173  0.80562033     0.06300
H888        H  0.02532829  0.56351216  0.85362854     0.08200
H889        H  0.06366632  0.58093063  0.86985111     0.11700
H890        H  0.09459640  0.58240133  0.79635816     0.12000
H891        H  0.05634628  0.56424428  0.78019284     0.08300
C892        C  0.00462146  0.56023578  0.78263059    -0.10900
C893        C  0.98368735  0.54891349  0.77225309    -0.10200
C894        C  0.97143446  0.52977729  0.78474284    -0.01100
C895        C  0.97980926  0.52280550  0.80820980    -0.11300
C896        C  0.00076919  0.53406826  0.81860366    -0.09700
H897        H  0.01399358  0.57459468  0.77230899     0.08300
H898        H  0.97797345  0.55400475  0.75378527     0.12000
H899        H  0.97117014  0.50744040  0.81771125     0.11700
H900        H  0.00750709  0.52737214  0.83617439     0.08200
C901        C  0.10605610  0.68624945  0.74583229    -0.10900
C902        C  0.08949115  0.70612858  0.74786556     0.06300
C903        C  0.08566253  0.71647550  0.77147940    -0.09600
C904        C  0.09763892  0.70692106  0.79242350    -0.11300
C905        C  0.11376504  0.68669206  0.79041325    -0.01100
C906        C  0.11799280  0.67669836  0.76673959    -0.10200
C907        C  0.07565114  0.71557303  0.72574432     0.06300
H908        H  0.07278552  0.73154521  0.77395643     0.08200
H909        H  0.09378984  0.71503564  0.81028383     0.11700
H910        H  0.13033941  0.66117137  0.76433637     0.12000
H911        H  0.10983221  0.67799454  0.72802518     0.08300
C912        C  0.07011485  0.74082156  0.72351818    -0.10900
C913        C  0.05485960  0.74937053  0.70446212    -0.10200
C914        C  0.04479371  0.73300552  0.68691448    -0.01100
C915        C  0.05146607  0.70801565  0.68806684    -0.11300
C916        C  0.06671305  0.69937343  0.70728244    -0.09700
H917        H  0.07708184  0.75399051  0.73690212     0.08300
H918        H  0.04996724  0.76873595  0.70402844     0.12000
H919        H  0.04364131  0.69493932  0.67504730     0.11700
H920        H  0.07038624  0.67978802  0.70838295     0.08200
C921        C  0.98804319  0.91612671  0.83371659    -0.10900
C922        C  0.98591922  0.93144073  0.81295999     0.06300
C923        C  0.96203397  0.93740543  0.80430103    -0.09600
C924        C  0.94080352  0.92773387  0.81566691    -0.11300
C925        C  0.94293955  0.91168320  0.83585837    -0.01100
C926        C  0.96682214  0.90625022  0.84493951    -0.10200
C927        C  0.00835485  0.94109935  0.80008295     0.06300
H928        H  0.95976172  0.94954213  0.78860888     0.08200
H929        H  0.92275684  0.93223587  0.80816350     0.11700
H930        H  0.96916607  0.89395062  0.86049573     0.12000
H931        H  0.00613713  0.91118152  0.84081541     0.08300
C932        C  0.02861633  0.95095729  0.81332140    -0.10900
C933        C  0.04804674  0.96303840  0.80091385    -0.10200
C934        C  0.04753540  0.96531983  0.77510934    -0.01100
C935        C  0.02837946  0.95359806  0.76187303    -0.11300
C936        C  0.00901573  0.94170634  0.77419095    -0.09700
H937        H  0.02868653  0.95066947  0.83329440     0.08300
H938        H  0.06246244  0.97211063  0.81154543     0.12000
H939        H  0.02764489  0.95494638  0.74194280     0.11700
H940        H  0.99406496  0.93369346  0.76344276     0.08200
C941        C  0.83211396  0.98396663  0.91821729    -0.10900
C942        C  0.81109335  0.98262776  0.93339854     0.06300
C943        C  0.80164514  0.95923487  0.93978295    -0.09600
C944        C  0.81267150  0.93764630  0.93077592    -0.11300
C945        C  0.83320298  0.93897468  0.91487637    -0.01100
C946        C  0.84291740  0.96240733  0.90890166    -0.10200
C947        C  0.79881552  0.00541167  0.94255986     0.06300
H948        H  0.78564107  0.95766292  0.95176150     0.08200
H949        H  0.80466438  0.91996308  0.93566576     0.11700
H950        H  0.85873064  0.96412215  0.89670088     0.12000
H951        H  0.83976961  0.00171682  0.91301619     0.08300
C952        C  0.81255706  0.02444892  0.95391887    -0.10900
C953        C  0.80040187  0.04403908  0.96579564    -0.10200
C954        C  0.77437592  0.04493382  0.96626388    -0.01100
C955        C  0.76083878  0.02709520  0.95297265    -0.11300
C956        C  0.77290048  0.00749995  0.94137383    -0.09700
H957        H  0.83257931  0.02332261  0.95500201     0.08300
H958        H  0.81121921  0.05737117  0.97616969     0.12000
H959        H  0.74074305  0.02740723  0.95305204     0.11700
H960        H  0.76189082  0.99339625  0.93229282     0.08200
C961        C  0.94228989  0.79973691  0.96281116    -0.10900
C962        C  0.93640486  0.80844863  0.98654504     0.06300
C963        C  0.92025915  0.82857427  0.98884866    -0.09600
C964        C  0.90947506  0.83915098  0.96784862    -0.11300
C965        C  0.91497235  0.83009529  0.94408313    -0.01100
C966        C  0.93182963  0.81052300  0.94182319    -0.10200
C967        C  0.94682421  0.79603177  0.00864652     0.06300
H968        H  0.91542861  0.83563480  0.00691620     0.08200
H969        H  0.89660340  0.85425922  0.97024745     0.11700
H970        H  0.93644341  0.80307881  0.92385587     0.12000
H971        H  0.95497066  0.78444792  0.96050922     0.08300
C972        C  0.94643419  0.77016338  0.01011410    -0.10900
C973        C  0.95876974  0.75802439  0.02918113    -0.10200
C974        C  0.97177772  0.77145918  0.04721294    -0.01100
C975        C  0.97090959  0.79735958  0.04675765    -0.11300
C976        C  0.95843294  0.80958695  0.02761178    -0.09700
H977        H  0.93724650  0.75930061  0.99600230     0.08300
H978        H  0.95926710  0.73802958  0.02916626     0.12000
H979        H  0.98115686  0.80805382  0.06026465     0.11700
H980        H  0.95901087  0.82955905  0.02687856     0.08200
C981        C  0.93856799  0.81102143  0.76594084    -0.10900
C982        C  0.92402216  0.79962842  0.74755343     0.06300
C983        C  0.89869086  0.79554797  0.75241652    -0.09600
C984        C  0.88812861  0.80309565  0.77488628    -0.11300
C985        C  0.90275762  0.81446138  0.79323225    -0.01100
C986        C  0.92812568  0.81820886  0.78846887    -0.10200
C987        C  0.93567102  0.79149066  0.72385079     0.06300
H988        H  0.88693630  0.78688830  0.73866375     0.08200
H989        H  0.86850065  0.80008104  0.77788884     0.11700
H990        H  0.93990207  0.82717185  0.80201964     0.12000
H991        H  0.95820084  0.81410453  0.76304892     0.08300
C992        C  0.93025003  0.76816697  0.71361950    -0.10900
C993        C  0.94411842  0.75899567  0.69369356    -0.10200
C994        C  0.96337879  0.77310251  0.68335577    -0.01100
C995        C  0.96762230  0.79703702  0.69240556    -0.11300
C996        C  0.95391088  0.80615368  0.71236164    -0.09700
H997        H  0.91648207  0.75631548  0.72208697     0.08300
H998        H  0.94102524  0.74020332  0.68753766     0.12000
H999        H  0.98279283  0.80800056  0.68516211     0.11700
H1000       H  0.95832672  0.82433123  0.71949119     0.08200
C1001       C  0.71201914  0.92315853  0.77293362    -0.10900
C1002       C  0.72318386  0.92884881  0.79571604     0.06300
C1003       C  0.71246156  0.94724554  0.81055564    -0.09600
C1004       C  0.69219548  0.96091117  0.80204165    -0.11300
C1005       C  0.68229822  0.95656319  0.77847240    -0.01100
C1006       C  0.69190455  0.93709008  0.76427603    -0.10200
C1007       C  0.74722622  0.91747576  0.80298476     0.06300
H1008       H  0.72056473  0.95187493  0.82827332     0.08200
H1009       H  0.68557579  0.97626781  0.81299353     0.11700
H1010       H  0.68511113  0.93394774  0.74571215     0.12000
H1011       H  0.71998565  0.90919270  0.76106234     0.08300
C1012       C  0.75070756  0.89180100  0.80221979    -0.10900
C1013       C  0.77334466  0.88141521  0.80965847    -0.10200
C1014       C  0.79316811  0.89652302  0.81756273    -0.01100
C1015       C  0.78980502  0.92225842  0.81759202    -0.11300
C1016       C  0.76711027  0.93256516  0.81053550    -0.09700
H1017       H  0.73571452  0.87975063  0.79642806     0.08300
H1018       H  0.77520562  0.86152649  0.80952497     0.12000
H1019       H  0.80452962  0.93448890  0.82367888     0.11700
H1020       H  0.76508894  0.95244210  0.81093090     0.08200
C1021       C  0.93464996  0.24919403  0.79148288    -0.10900
C1022       C  0.93174187  0.22382474  0.78677298     0.06300
C1023       C  0.94287588  0.20687414  0.80302133    -0.09600
C1024       C  0.95762991  0.21508170  0.82269921    -0.11300
C1025       C  0.96147654  0.24038218  0.82662704    -0.01100
C1026       C  0.94941525  0.25737800  0.81118643    -0.10200
C1027       C  0.91851971  0.21486884  0.76427113     0.06300
H1028       H  0.94134806  0.18722452  0.79967898     0.08200
H1029       H  0.96749014  0.20166478  0.83376490     0.11700
H1030       H  0.95270105  0.27697898  0.81347868     0.12000
H1031       H  0.92617600  0.26269604  0.77943691     0.08300
C1032       C  0.90278153  0.19421867  0.76556235    -0.10900
C1033       C  0.89222888  0.18418847  0.74419694    -0.10200
C1034       C  0.89721944  0.19443209  0.72084914    -0.01100
C1035       C  0.91225747  0.21568034  0.71959504    -0.11300
C1036       C  0.92274430  0.22582248  0.74108211    -0.09700
H1037       H  0.89889979  0.18555916  0.78314955     0.08300
H1038       H  0.88062816  0.16793637  0.74597231     0.12000
H1039       H  0.91653149  0.22404632  0.70195665     0.11700
H1040       H  0.93496518  0.24163535  0.73943308     0.08200
C1041       C  0.93795409  0.21219649  0.54819056    -0.10900
C1042       C  0.94165739  0.19663205  0.52768768     0.06300
C1043       C  0.93584812  0.17144376  0.53006272    -0.09600
C1044       C  0.92601436  0.16217004  0.55208802    -0.11300
C1045       C  0.92174543  0.17781682  0.57239715    -0.01100
C1046       C  0.92812170  0.20291340  0.57025753    -0.10200
C1047       C  0.95167643  0.20662331  0.50402627     0.06300
H1048       H  0.93831274  0.15895053  0.51465407     0.08200
H1049       H  0.92126576  0.14276025  0.55299375     0.11700
H1050       H  0.92510409  0.21551186  0.58548637     0.12000
H1051       H  0.94271693  0.23159683  0.54720875     0.08300
C1052       C  0.94454768  0.23008824  0.49552309    -0.10900
C1053       C  0.95570284  0.24045704  0.47462848    -0.10200
C1054       C  0.97402433  0.22751428  0.46163574    -0.01100
C1055       C  0.98030680  0.20361700  0.46927979    -0.11300
C1056       C  0.96918698  0.19321599  0.49020726    -0.09700
H1057       H  0.93085159  0.24076663  0.50545649     0.08300
H1058       H  0.95114550  0.25920719  0.46946860     0.12000
H1059       H  0.99506482  0.19370258  0.46006333     0.11700
H1060       H  0.97534357  0.17524988  0.49634493     0.08200
C1061       C  0.01873184  0.07078148  0.72449295    -0.10900
C1062       C  0.00824583  0.06294828  0.70196508     0.06300
C1063       C  0.02008549  0.04379049  0.68893847    -0.09600
C1064       C  0.04066389  0.03168635  0.69899158    -0.11300
C1065       C  0.05000337  0.03851113  0.72219314    -0.01100
C1066       C  0.03929846  0.05859787  0.73454463    -0.10200
C1067       C  0.98430407  0.07353712  0.69281597     0.06300
H1068       H  0.01249359  0.03698664  0.67172796     0.08200
H1069       H  0.04809601  0.01570887  0.68953571     0.11700
H1070       H  0.04575835  0.06371839  0.75278013     0.12000
H1071       H  0.01047719  0.08574702  0.73484618     0.08300
C1072       C  0.96523818  0.08007663  0.70935986    -0.10900
C1073       C  0.94257161  0.08940152  0.70072345    -0.10200
C1074       C  0.93830867  0.09237297  0.67529559    -0.01100
C1075       C  0.95728242  0.08563976  0.65878517    -0.11300
C1076       C  0.97991144  0.07640746  0.66740057    -0.09700
H1077       H  0.96767138  0.07769563  0.72903876     0.08300
H1078       H  0.92848725  0.09451188  0.71399750     0.12000
H1079       H  0.95482842  0.08784606  0.63907975     0.11700
H1080       H  0.99413720  0.07187907  0.65407558     0.08200
C1081       C  0.76313224  0.28713894  0.56741774    -0.10900
C1082       C  0.78619360  0.28930940  0.57940184     0.06300
C1083       C  0.79965079  0.31156748  0.57647055    -0.09600
C1084       C  0.79163538  0.32976444  0.55988710    -0.11300
C1085       C  0.76979477  0.32625914  0.54624546    -0.01100
C1086       C  0.75496919  0.30546697  0.55129443    -0.10200
C1087       C  0.79725605  0.26750313  0.59236719     0.06300
H1088       H  0.81702327  0.31449590  0.58606655     0.08200
H1089       H  0.80336390  0.34566383  0.55646111     0.11700
H1090       H  0.73783058  0.30247562  0.54124662     0.12000
H1091       H  0.75208051  0.27051583  0.56893040     0.08300
C1092       C  0.78227829  0.24898284  0.60318844    -0.10900
C1093       C  0.79281893  0.22725574  0.61258197    -0.10200
C1094       C  0.81860381  0.22389204  0.61203015    -0.01100
C1095       C  0.83358318  0.24259165  0.60199056    -0.11300
C1096       C  0.82309762  0.26388944  0.59204994    -0.09700
H1097       H  0.76236730  0.25110838  0.60430508     0.08300
H1098       H  0.78087748  0.21323524  0.62049329     0.12000
H1099       H  0.85353256  0.24038937  0.60109610     0.11700
H1100       H  0.83537400  0.27707071  0.58332415     0.08200
C1101       C  0.79336243  0.05368702  0.57217099    -0.10900
C1102       C  0.80742485  0.03198310  0.56929984     0.06300
C1103       C  0.83282017  0.03289160  0.57527755    -0.09600
C1104       C  0.84361421  0.05457933  0.58457037    -0.11300
C1105       C  0.82931401  0.07597455  0.58826384    -0.01100
C1106       C  0.80411497  0.07531452  0.58161272    -0.10200
C1107       C  0.79553292  0.00860859  0.56025559     0.06300
H1108       H  0.84427315  0.01662156  0.57350708     0.08200
H1109       H  0.86306994  0.05432410  0.58954759     0.11700
H1110       H  0.79253630  0.09141842  0.58407841     0.12000
H1111       H  0.77393208  0.05402228  0.56714258     0.08300
C1112       C  0.77075928  0.00300589  0.56638020    -0.10900
C1113       C  0.75877096  0.98247448  0.55611131    -0.10200
C1114       C  0.77132065  0.96673093  0.53980052    -0.01100
C1115       C  0.79642836  0.97132614  0.53472686    -0.11300
C1116       C  0.80842255  0.99206431  0.54480986    -0.09700
H1117       H  0.76035355  0.01484009  0.57867097     0.08300
H1118       H  0.73926245  0.97952557  0.55993493     0.12000
H1119       H  0.80626112  0.95983790  0.52163723     0.11700
H1120       H  0.82739645  0.99579069  0.53943671     0.08200
C1121       C  0.77269411  0.07483779  0.71478336    -0.10900
C1122       C  0.74841301  0.08204719  0.70853862     0.06300
C1123       C  0.74513726  0.10375992  0.69486373    -0.09600
C1124       C  0.76575759  0.11713860  0.68638021    -0.11300
C1125       C  0.79012222  0.10932601  0.69171791    -0.01100
C1126       C  0.79329488  0.08839754  0.70662389    -0.10200
C1127       C  0.72694696  0.06586838  0.71489787     0.06300
H1128       H  0.72668254  0.10973343  0.68975588     0.08200
H1129       H  0.76261672  0.13323087  0.67498503     0.11700
H1130       H  0.81171830  0.08181456  0.71102034     0.12000
H1131       H  0.77574684  0.05830652  0.72556179     0.08300
C1132       C  0.72839250  0.04048892  0.71008556    -0.10900
C1133       C  0.70951379  0.02454203  0.71760572    -0.10200
C1134       C  0.68880243  0.03337365  0.73069450    -0.01100
C1135       C  0.68645265  0.05900600  0.73413178    -0.11300
C1136       C  0.70534111  0.07516359  0.72614852    -0.09700
H1137       H  0.74443352  0.03287852  0.70079694     0.08300
H1138       H  0.71159935  0.00499645  0.71399063     0.12000
H1139       H  0.67074030  0.06639763  0.74410716     0.11700
H1140       H  0.70363355  0.09472892  0.72981666     0.08200
C1141       C  0.81365869  0.70974876  0.95500820    -0.10900
C1142       C  0.79963222  0.71773242  0.93466914     0.06300
C1143       C  0.77809158  0.70448039  0.92817944    -0.09600
C1144       C  0.76957627  0.68508221  0.94315505    -0.11300
C1145       C  0.78267045  0.67854245  0.96456577    -0.01100
C1146       C  0.80521756  0.69041095  0.96984286    -0.10200
C1147       C  0.80583200  0.74160390  0.92257674     0.06300
H1148       H  0.76689792  0.71030797  0.91266468     0.08200
H1149       H  0.75189921  0.67642399  0.93904684     0.11700
H1150       H  0.81541633  0.68581761  0.98643268     0.12000
H1151       H  0.83048763  0.71942786  0.96024153     0.08300
C1152       C  0.81065754  0.76242414  0.93731038    -0.10900
C1153       C  0.81665466  0.78511027  0.92665665    -0.10200
C1154       C  0.81824029  0.78764880  0.90089942    -0.01100
C1155       C  0.81301843  0.76687740  0.88603020    -0.11300
C1156       C  0.80664142  0.74411511  0.89677890    -0.09700
H1157       H  0.80972260  0.76115801  0.95722993     0.08300
H1158       H  0.82065867  0.80055788  0.93874093     0.12000
H1159       H  0.81422752  0.76811250  0.86613100     0.11700
H1160       H  0.80292214  0.72836424  0.88499649     0.08200
C1161       C  0.52581045  0.90804722  0.18270099    -0.10900
C1162       C  0.52722657  0.92451510  0.20265382     0.06300
C1163       C  0.55076191  0.93118637  0.21183249    -0.09600
C1164       C  0.57239158  0.92145229  0.20140391    -0.11300
C1165       C  0.57097291  0.90462234  0.18170971    -0.01100
C1166       C  0.54740179  0.89809812  0.17245236    -0.10200
C1167       C  0.50436170  0.93509667  0.21371944     0.06300
H1168       H  0.55243967  0.94413085  0.22698538     0.08200
H1169       H  0.59019370  0.92677367  0.20906057     0.11700
H1170       H  0.54559537  0.88512727  0.15733854     0.12000
H1171       H  0.50795697  0.90251700  0.17530681     0.08300
C1172       C  0.48540242  0.94476742  0.19871298    -0.10900
C1173       C  0.46554522  0.95773236  0.20921924    -0.10200
C1174       C  0.46429403  0.96106233  0.23485805    -0.01100
C1175       C  0.48223450  0.94982158  0.24990222    -0.11300
C1176       C  0.50205698  0.93699674  0.23945476    -0.09700
H1177       H  0.48674209  0.94363090  0.17881865     0.08300
H1178       H  0.45221199  0.96667352  0.19725881     0.12000
H1179       H  0.48172765  0.95235465  0.26972134     0.11700
H1180       H  0.51611915  0.92934160  0.25148756     0.08200
C1181       C  0.74136023  0.91812107  0.22922034    -0.10900
C1182       C  0.76480003  0.90857038  0.22299823     0.06300
C1183       C  0.76587844  0.88787122  0.20737614    -0.09600
C1184       C  0.74406534  0.87729970  0.19785521    -0.11300
C1185       C  0.72071090  0.88750236  0.20330818    -0.01100
C1186       C  0.71961954  0.90786720  0.21933559    -0.10200
C1187       C  0.78782649  0.92135803  0.23159004     0.06300
H1188       H  0.78360977  0.88004418  0.20231775     0.08200
H1189       H  0.74555804  0.86169722  0.18542901     0.11700
H1190       H  0.70195977  0.91615182  0.22389817     0.12000
H1191       H  0.73986660  0.93423218  0.24097751     0.08300
C1192       C  0.80717476  0.92692793  0.21500732    -0.10900
C1193       C  0.82643531  0.94310437  0.22188083    -0.10200
C1194       C  0.82671308  0.95384431  0.24548292    -0.01100
C1195       C  0.80864723  0.94646374  0.26268409    -0.11300
C1196       C  0.78942222  0.93046817  0.25582596    -0.09700
H1197       H  0.80644072  0.92026023  0.19616839     0.08300
H1198       H  0.83989768  0.94876974  0.20817842     0.12000
H1199       H  0.80842205  0.95453509  0.28099070     0.11700
H1200       H  0.77508796  0.92618670  0.26914613     0.08200
C1201       C  0.68226573  0.98304120  0.10207021    -0.10900
C1202       C  0.69126599  0.98247860  0.07779579     0.06300
C1203       C  0.69340401  0.95952156  0.06580763    -0.09600
C1204       C  0.68664464  0.93761462  0.07779086    -0.11300
C1205       C  0.67734731  0.93813397  0.10200701    -0.01100
C1206       C  0.67522642  0.96116059  0.11397799    -0.10200
C1207       C  0.69863569  0.00558448  0.06484850     0.06300
H1208       H  0.70059356  0.95850619  0.04718212     0.08200
H1209       H  0.68857406  0.92028587  0.06800976     0.11700
H1210       H  0.66812818  0.96231503  0.13262354     0.12000
H1211       H  0.68034504  0.00045733  0.11170351     0.08300
C1212       C  0.69100145  0.00956890  0.04042247    -0.10900
C1213       C  0.70053673  0.02934127  0.02687549    -0.10200
C1214       C  0.71814408  0.04548960  0.03731372    -0.01100
C1215       C  0.72446934  0.04266501  0.06228591    -0.11300
C1216       C  0.71466595  0.02290828  0.07601408    -0.09700
H1217       H  0.67837347  0.99677772  0.03148054     0.08300
H1218       H  0.69550448  0.03104178  0.00759441     0.12000
H1219       H  0.73833901  0.05456984  0.07059825     0.11700
H1220       H  0.72085435  0.02025270  0.09483408     0.08200
C1221       C  0.58339319  0.76051035  0.29745208    -0.10900
C1222       C  0.58237176  0.78512866  0.28943658     0.06300
C1223       C  0.56893484  0.80226803  0.30363007    -0.09600
C1224       C  0.55537182  0.79459885  0.32436346    -0.11300
C1225       C  0.55477253  0.76961599  0.33114711    -0.01100
C1226       C  0.56953901  0.75279284  0.31794880    -0.10200
C1227       C  0.59315391  0.79235964  0.26515486     0.06300
H1228       H  0.56797763  0.82139597  0.29796055     0.08200
H1229       H  0.54365879  0.80778924  0.33379825     0.11700
H1230       H  0.56881607  0.73331870  0.32237952     0.12000
H1231       H  0.59343691  0.74687980  0.28680740     0.08300
C1232       C  0.61766116  0.78624910  0.25879047    -0.10900
C1233       C  0.62756824  0.79336881  0.23589276    -0.10200
C1234       C  0.61295990  0.80615515  0.21859559    -0.01100
C1235       C  0.58820383  0.81151906  0.22473736    -0.11300
C1236       C  0.57851834  0.80491357  0.24778570    -0.09700
H1237       H  0.62931189  0.77647799  0.27177418     0.08300
H1238       H  0.64674533  0.78910394  0.23182007     0.12000
H1239       H  0.57651174  0.82160855  0.21203312     0.11700
H1240       H  0.55945661  0.80953345  0.25202687     0.08200
C1241       C  0.71564499  0.74553974  0.11099607    -0.10900
C1242       C  0.71389002  0.74266533  0.08528111     0.06300
C1243       C  0.70495037  0.76247478  0.07114376    -0.09600
C1244       C  0.69756525  0.78451158  0.08242307    -0.11300
C1245       C  0.69857603  0.78722356  0.10821343    -0.01100
C1246       C  0.70783371  0.76748230  0.12236901    -0.10200
C1247       C  0.72151314  0.71933085  0.07289027     0.06300
H1248       H  0.70373095  0.76091460  0.05125471     0.08200
H1249       H  0.69038991  0.79919280  0.07093790     0.11700
H1250       H  0.70877395  0.76888189  0.14227929     0.12000
H1251       H  0.72249771  0.73058933  0.12233101     0.08300
C1252       C  0.74491430  0.70885811  0.07744958    -0.10900
C1253       C  0.75351858  0.68920581  0.06290417    -0.10200
C1254       C  0.73865321  0.67937745  0.04396148    -0.01100
C1255       C  0.71468278  0.68875322  0.04051056    -0.11300
C1256       C  0.70620242  0.70853977  0.05479902    -0.09700
H1257       H  0.75714791  0.71689654  0.09115576     0.08300
H1258       H  0.77232268  0.68268238  0.06541774     0.12000
H1259       H  0.70314885  0.68181191  0.02564969     0.11700
H1260       H  0.68801081  0.71609359  0.05104183     0.08200
C1261       C  0.21317268  0.55639610  0.20462655    -0.10900
C1262       C  0.22266822  0.57493583  0.22020708     0.06300
C1263       C  0.20971148  0.58055307  0.24203854    -0.09600
C1264       C  0.18896812  0.56646596  0.24910605    -0.11300
C1265       C  0.18066954  0.54681085  0.23429934    -0.01100
C1266       C  0.19243813  0.54248656  0.21160826    -0.10200
C1267       C  0.24708104  0.58670160  0.21460316     0.06300
H1268       H  0.21663564  0.59465429  0.25444425     0.08200
H1269       H  0.18061742  0.56967101  0.26700150     0.11700
H1270       H  0.18668832  0.52709681  0.20015912     0.12000
H1271       H  0.22251121  0.55187980  0.18751474     0.08300
C1272       C  0.26713476  0.57204057  0.20695929    -0.10900
C1273       C  0.28997645  0.58273556  0.20088881    -0.10200
C1274       C  0.29338536  0.60846601  0.20202121    -0.01100
C1275       C  0.27353169  0.62312318  0.21034599    -0.11300
C1276       C  0.25069544  0.61232400  0.21677674    -0.09700
H1277       H  0.26510392  0.55219813  0.20555499     0.08300
H1278       H  0.30471677  0.57082893  0.19443813     0.12000
H1279       H  0.27544778  0.64299538  0.21132686     0.11700
H1280       H  0.23561092  0.62407956  0.22268632     0.08200
C1281       C  0.27733525  0.49371184  0.07021893    -0.10900
C1282       C  0.30304976  0.49697021  0.07255844     0.06300
C1283       C  0.31894678  0.47854866  0.06338706    -0.09600
C1284       C  0.30929553  0.45832500  0.05019185    -0.11300
C1285       C  0.28361659  0.45610230  0.04639135    -0.01100
C1286       C  0.26773375  0.47340963  0.05744630    -0.10200
C1287       C  0.31309772  0.52029322  0.08309380     0.06300
H1288       H  0.33886974  0.48066118  0.06501009     0.08200
H1289       H  0.32191012  0.44554001  0.04139564     0.11700
H1290       H  0.24788078  0.47222580  0.05448147     0.12000
H1291       H  0.26469611  0.50743856  0.07742002     0.08300
C1292       C  0.30504734  0.54328493  0.07410664    -0.10900
C1293       C  0.31440447  0.56537957  0.08400671    -0.10200
C1294       C  0.33177446  0.56493813  0.10335487    -0.01100
C1295       C  0.33979329  0.54183398  0.11224036    -0.11300
C1296       C  0.33071361  0.51980698  0.10210132    -0.09700
H1297       H  0.29160040  0.54412437  0.05927309     0.08300
H1298       H  0.30777186  0.58276748  0.07676631     0.12000
H1299       H  0.35309631  0.54071482  0.12717297     0.11700
H1300       H  0.33712762  0.50235670  0.10940351     0.08200
C1301       C  0.29913566  0.75843049  0.12103768    -0.10900
C1302       C  0.29962297  0.76151255  0.09529681     0.06300
C1303       C  0.30610534  0.74130399  0.08041481    -0.09600
C1304       C  0.31264696  0.71872434  0.09093620    -0.11300
C1305       C  0.31323671  0.71576913  0.11670330    -0.01100
C1306       C  0.30614722  0.73584283  0.13166922    -0.10200
C1307       C  0.29345410  0.78548664  0.08347132     0.06300
H1308       H  0.30621766  0.74303593  0.06050809     0.08200
H1309       H  0.31808511  0.70380220  0.07879557     0.11700
H1310       H  0.30646049  0.73423483  0.15157560     0.12000
H1311       H  0.29406868  0.77369713  0.13291000     0.08300
C1312       C  0.27083692  0.79737173  0.08836236    -0.10900
C1313       C  0.26296344  0.81705976  0.07348855    -0.10200
C1314       C  0.27783687  0.82546264  0.05392007    -0.01100
C1315       C  0.30128469  0.81490811  0.05039908    -0.11300
C1316       C  0.30900308  0.79510290  0.06499426    -0.09700
H1317       H  0.25845993  0.79023378  0.10238499     0.08300
H1318       H  0.24450578  0.82447806  0.07605364     0.12000
H1319       H  0.31275359  0.82067349  0.03503791     0.11700
H1320       H  0.32660050  0.78638467  0.06096004     0.08200
C1321       C  0.44273636  0.70560920  0.24206138    -0.10900
C1322       C  0.42986902  0.70868623  0.26444736     0.06300
C1323       C  0.40392914  0.70570719  0.26432906    -0.09600
C1324       C  0.39139617  0.69858373  0.24266659    -0.11300
C1325       C  0.40448386  0.69445125  0.22054572    -0.01100
C1326       C  0.43026419  0.69861487  0.22047562    -0.10200
C1327       C  0.44384250  0.71424265  0.28771455     0.06300
H1328       H  0.39343388  0.70795928  0.28120098     0.08200
H1329       H  0.37155079  0.69554878  0.24346234     0.11700
H1330       H  0.44102238  0.69579266  0.20384897     0.12000
H1331       H  0.46262943  0.70834869  0.24127360     0.08300
C1332       C  0.46666830  0.70261652  0.29222624    -0.10900
C1333       C  0.48139575  0.70953660  0.31231976    -0.10200
C1334       C  0.47386619  0.72838941  0.32850385    -0.01100
C1335       C  0.45027630  0.73884336  0.32517938    -0.11300
C1336       C  0.43533886  0.73176172  0.30499825    -0.09700
H1337       H  0.47353680  0.68859964  0.27974384     0.08300
H1338       H  0.49950554  0.70117028  0.31439893     0.12000
H1339       H  0.44416940  0.75365660  0.33712189     0.11700
H1340       H  0.41781176  0.74102292  0.30212950     0.08200
C1341       C  0.59238165  0.83190323  0.02516710    -0.10900
C1342       C  0.57761590  0.81055570  0.02565680     0.06300
C1343       C  0.57186427  0.79985511  0.04862753    -0.09600
C1344       C  0.58148018  0.80973115  0.07059226    -0.11300
C1345       C  0.59739855  0.83029780  0.07001366    -0.01100
C1346       C  0.60234069  0.84153329  0.04705912    -0.10200
C1347       C  0.56890830  0.79880246  0.00236457     0.06300
H1348       H  0.56018055  0.78357723  0.04952491     0.08200
H1349       H  0.57728546  0.80065761  0.08789355     0.11700
H1350       H  0.61441134  0.85751162  0.04593882     0.12000
H1351       H  0.59701686  0.84055979  0.00775735     0.08300
C1352       C  0.55624222  0.81241861  0.98422901    -0.10900
C1353       C  0.54517121  0.80036446  0.96403166    -0.10200
C1354       C  0.54694033  0.77461699  0.96152804    -0.01100
C1355       C  0.56140346  0.76142173  0.97853242    -0.11300
C1356       C  0.57217920  0.77335638  0.99876977    -0.09700
H1357       H  0.55350937  0.83207809  0.98654949     0.08300
H1358       H  0.53354950  0.81081298  0.95155593     0.12000
H1359       H  0.56261365  0.74150455  0.97724858     0.11700
H1360       H  0.58220968  0.76251078  0.01223593     0.08200
C1361       C  0.45272526  0.69070310  0.98575649    -0.10900
C1362       C  0.44376862  0.70575399  0.00500218     0.06300
C1363       C  0.44663179  0.73143498  0.00304256    -0.09600
C1364       C  0.45955733  0.74172673  0.98325252    -0.11300
C1365       C  0.47013424  0.72662728  0.96498251    -0.01100
C1366       C  0.46590837  0.70106824  0.96592140    -0.10200
C1367       C  0.43263552  0.69487853  0.02768814     0.06300
H1368       H  0.43950278  0.74355664  0.01725387     0.08200
H1369       H  0.46262480  0.76149870  0.98295607     0.11700
H1370       H  0.47421593  0.68902601  0.95229459     0.12000
H1371       H  0.45079461  0.67083521  0.98677659     0.08300
C1372       C  0.41539054  0.67545589  0.02619316    -0.10900
C1373       C  0.40458741  0.66575350  0.04760534    -0.10200
C1374       C  0.41104089  0.67500606  0.07106032    -0.01100
C1375       C  0.42867419  0.69410810  0.07257221    -0.11300
C1376       C  0.43924199  0.70400255  0.05114639    -0.09700
H1377       H  0.40986466  0.66811387  0.00841540     0.08300
H1378       H  0.39107799  0.65102608  0.04576836     0.12000
H1379       H  0.43401144  0.70171493  0.09029863     0.11700
H1380       H  0.45275477  0.71873605  0.05293752     0.08200
C1381       C  0.46110389  0.56353810  0.20495954    -0.10900
C1382       C  0.48476515  0.57010446  0.19611440     0.06300
C1383       C  0.48657467  0.58732952  0.17689971    -0.09600
C1384       C  0.46523312  0.59857544  0.16749882    -0.11300
C1385       C  0.44159610  0.59262187  0.17692936    -0.01100
C1386       C  0.43975448  0.57458431  0.19540860    -0.10200
C1387       C  0.50732166  0.55922226  0.20741743     0.06300
H1388       H  0.50454313  0.59268289  0.16970455     0.08200
H1389       H  0.46730866  0.61229881  0.15313556     0.11700
H1390       H  0.42187890  0.56950758  0.20301075     0.12000
H1391       H  0.45913481  0.54992632  0.21944642     0.08300
C1392       C  0.50893569  0.55704608  0.23316919    -0.10900
C1393       C  0.52832274  0.54396771  0.24397435    -0.10200
C1394       C  0.54652035  0.53271975  0.22928674    -0.01100
C1395       C  0.54609672  0.53642264  0.20367067    -0.11300
C1396       C  0.52663712  0.54969672  0.19278217    -0.09700
H1397       H  0.49463930  0.56468813  0.24492832     0.08300
H1398       H  0.52827698  0.54124893  0.26377319     0.12000
H1399       H  0.55975134  0.52758738  0.19199957     0.11700
H1400       H  0.52586843  0.55118735  0.17288036     0.08200
C1401       C  0.29657928  0.45928590  0.43144086    -0.10900
C1402       C  0.31220496  0.48012343  0.43324609     0.06300
C1403       C  0.33718322  0.47765621  0.42626100    -0.09600
C1404       C  0.34621870  0.45509682  0.41751817    -0.11300
C1405       C  0.33052882  0.43435371  0.41546741    -0.01100
C1406       C  0.30560268  0.43672658  0.42262156    -0.10200
C1407       C  0.30261190  0.50400338  0.44314922     0.06300
H1408       H  0.34971852  0.49328489  0.42716686     0.08200
H1409       H  0.36549280  0.45404685  0.41200929     0.11700
H1410       H  0.29297194  0.42120062  0.42121975     0.12000
H1411       H  0.27736884  0.46028072  0.43714907     0.08300
C1412       C  0.27808929  0.51144920  0.43832420    -0.10900
C1413       C  0.26795690  0.53187055  0.45044925    -0.10200
C1414       C  0.28219808  0.54551406  0.46736357    -0.01100
C1415       C  0.30717650  0.53930888  0.47086712    -0.11300
C1416       C  0.31731291  0.51876501  0.45887349    -0.09700
H1417       H  0.26637975  0.50089738  0.42593555     0.08300
H1418       H  0.24847106  0.53602001  0.44792717     0.12000
H1419       H  0.31823772  0.54911761  0.48441824     0.11700
H1420       H  0.33616750  0.51352765  0.46325431     0.08200
C1421       C  0.47943232  0.41628623  0.33242211    -0.10900
C1422       C  0.48126423  0.42308542  0.30747664     0.06300
C1423       C  0.45963905  0.42206165  0.29281755    -0.09600
C1424       C  0.43689671  0.41439964  0.30285130    -0.11300
C1425       C  0.43513601  0.40780481  0.32785600    -0.01100
C1426       C  0.45672372  0.40888701  0.34247497    -0.10200
C1427       C  0.50529704  0.43226328  0.29710901     0.06300
H1428       H  0.46013523  0.42759613  0.27364732     0.08200
H1429       H  0.42070734  0.41365339  0.29102087     0.11700
H1430       H  0.45622467  0.40360079  0.36172645     0.12000
H1431       H  0.49564196  0.41641204  0.34422930     0.08300
C1432       C  0.52139045  0.44696046  0.31152734    -0.10900
C1433       C  0.54212622  0.45842857  0.30094843    -0.10200
C1434       C  0.54717522  0.45554497  0.27575841    -0.01100
C1435       C  0.53222082  0.43957261  0.26169670    -0.11300
C1436       C  0.51162590  0.42788618  0.27229266    -0.09700
H1437       H  0.51708268  0.45104991  0.33058751     0.08300
H1438       H  0.55295701  0.47126351  0.31193578     0.12000
H1439       H  0.53549868  0.43752412  0.24208801     0.11700
H1440       H  0.50007649  0.41625048  0.26074047     0.08200
C1441       C  0.30838092  0.23864755  0.39770527    -0.10900
C1442       C  0.29159650  0.24016078  0.41744641     0.06300
C1443       C  0.28434369  0.26372460  0.42576099    -0.09600
C1444       C  0.29424695  0.28517582  0.41514693    -0.11300
C1445       C  0.31176868  0.28359350  0.39605905    -0.01100
C1446       C  0.31834851  0.26006037  0.38717836    -0.10200
C1447       C  0.28286484  0.21744870  0.43042026     0.06300
H1448       H  0.27174843  0.26562866  0.44118902     0.08200
H1449       H  0.28891359  0.30295465  0.42254834     0.11700
H1450       H  0.33165985  0.25812922  0.37235161     0.12000
H1451       H  0.31408653  0.22087243  0.39058966     0.08300
C1452       C  0.25863377  0.21609868  0.43987129    -0.10900
C1453       C  0.25165433  0.19678956  0.45547543    -0.10200
C1454       C  0.26867051  0.17830229  0.46194579    -0.01100
C1455       C  0.29221106  0.17840001  0.45094395    -0.11300
C1456       C  0.29927102  0.19782768  0.43532422    -0.09700
H1457       H  0.24534328  0.23051981  0.43600670     0.08300
H1458       H  0.23335418  0.19705528  0.46372867     0.12000
H1459       H  0.30573716  0.16453206  0.45590801     0.11700
H1460       H  0.31812093  0.19829786  0.42845732     0.08200
C1461       C  0.23923814  0.40280231  0.31802842    -0.10900
C1462       C  0.24163072  0.42039759  0.29917206     0.06300
C1463       C  0.26556785  0.42555132  0.28997512    -0.09600
C1464       C  0.28653133  0.41356725  0.29949702    -0.11300
C1465       C  0.28413724  0.39614175  0.31851980    -0.01100
C1466       C  0.26016280  0.39084346  0.32754666    -0.10200
C1467       C  0.21946484  0.43378314  0.28942330     0.06300
H1468       H  0.26818941  0.43933799  0.27577055     0.08200
H1469       H  0.30466593  0.41837547  0.29233650     0.11700
H1470       H  0.25752647  0.37754523  0.34221140     0.12000
H1471       H  0.22113876  0.39819160  0.32539926     0.08300
C1472       C  0.20063175  0.44234422  0.30531741    -0.10900
C1473       C  0.18150108  0.45749033  0.29638053    -0.10200
C1474       C  0.18083463  0.46431163  0.27140316    -0.01100
C1475       C  0.19861345  0.45432855  0.25528941    -0.11300
C1476       C  0.21764760  0.43928373  0.26415746    -0.09700
H1477       H  0.20146566  0.43853342  0.32490531     0.08300
H1478       H  0.16828548  0.46524311  0.30925064     0.12000
H1479       H  0.19853689  0.45932692  0.23593748     0.11700
H1480       H  0.23141974  0.43255114  0.25129748     0.08200
C1481       C  0.39662219  0.30797708  0.24282920    -0.10900
C1482       C  0.41577101  0.29051335  0.24479310     0.06300
C1483       C  0.42282367  0.28271752  0.26861416    -0.09600
C1484       C  0.41163228  0.29264314  0.28976747    -0.11300
C1485       C  0.39317958  0.31079170  0.28775589    -0.01100
C1486       C  0.38555510  0.31801097  0.26397345    -0.10200
C1487       C  0.42938617  0.28156456  0.22236361     0.06300
H1488       H  0.43773822  0.26962649  0.27104287     0.08200
H1489       H  0.41809174  0.28671979  0.30772757     0.11700
H1490       H  0.37128419  0.33182761  0.26164507     0.12000
H1491       H  0.39031536  0.31414390  0.22490949     0.08300
C1492       C  0.43441556  0.29753241  0.20239463    -0.10900
C1493       C  0.45021840  0.29026990  0.18310981    -0.10200
C1494       C  0.46143649  0.26695109  0.18341937    -0.01100
C1495       C  0.45500217  0.25037539  0.20234508    -0.11300
C1496       C  0.43914197  0.25752553  0.22148350    -0.09700
H1497       H  0.42744957  0.31623833  0.20239135     0.08300
H1498       H  0.45513381  0.30352193  0.16897854     0.12000
H1499       H  0.46339252  0.23224657  0.20302359     0.11700
H1500       H  0.43522741  0.24444114  0.23605547     0.08200
C1501       C  0.46400795  0.31625347  0.51712755    -0.10900
C1502       C  0.44221499  0.30495331  0.50827589     0.06300
C1503       C  0.43278351  0.28428908  0.52097855    -0.09600
C1504       C  0.44583651  0.27412821  0.54093011    -0.11300
C1505       C  0.46853578  0.28443450  0.54847184    -0.01100
C1506       C  0.47708058  0.30600826  0.53689852    -0.10200
C1507       C  0.43081449  0.31348043  0.48469307     0.06300
H1508       H  0.41587555  0.27535711  0.51479542     0.08200
H1509       H  0.43920195  0.25717218  0.54922138     0.11700
H1510       H  0.49487415  0.31387238  0.54200325     0.12000
H1511       H  0.47192028  0.33201071  0.50767699     0.08300
C1512       C  0.42890456  0.33877380  0.47936127    -0.10900
C1513       C  0.41970969  0.34673974  0.45656605    -0.10200
C1514       C  0.41234509  0.32962853  0.43835899    -0.01100
C1515       C  0.41419715  0.30431359  0.44370398    -0.11300
C1516       C  0.42323958  0.29634450  0.46661621    -0.09700
H1517       H  0.43444840  0.35244881  0.49290012     0.08300
H1518       H  0.41835626  0.36638762  0.45323322     0.12000
H1519       H  0.40848633  0.29062877  0.43024687     0.11700
H1520       H  0.42483082  0.27672338  0.46998306     0.08200
C1521       C  0.54936492  0.07531009  0.29402066    -0.10900
C1522       C  0.52705856  0.07685046  0.30752329     0.06300
C1523       C  0.52764369  0.08811508  0.33085953    -0.09600
C1524       C  0.54982630  0.09757004  0.34044725    -0.11300
C1525       C  0.57212203  0.09613954  0.32696018    -0.01100
C1526       C  0.57160863  0.08491674  0.30358452    -0.10200
C1527       C  0.50348843  0.06611919  0.29760439     0.06300
H1528       H  0.51084665  0.08990372  0.34165228     0.08200
H1529       H  0.54938556  0.10633831  0.35840417     0.11700
H1530       H  0.58839541  0.08347568  0.29271989     0.12000
H1531       H  0.54971880  0.06633924  0.27616836     0.08300
C1532       C  0.49792812  0.06753343  0.27229066    -0.10900
C1533       C  0.47756687  0.05476358  0.26248094    -0.10200
C1534       C  0.46218342  0.04042899  0.27774573    -0.01100
C1535       C  0.46660276  0.04035266  0.30324775    -0.11300
C1536       C  0.48701715  0.05312461  0.31311196    -0.09700
H1537       H  0.50988454  0.07774352  0.25988455     0.08300
H1538       H  0.47483164  0.05461754  0.24267696     0.12000
H1539       H  0.45547332  0.02880599  0.31525413     0.11700
H1540       H  0.49079562  0.05145570  0.33265457     0.08200
C1541       C  0.76453571  0.09296820  0.31936058    -0.10900
C1542       C  0.76611214  0.08984719  0.29360665     0.06300
C1543       C  0.74606558  0.09835500  0.27910158    -0.09600
C1544       C  0.72476990  0.10844051  0.29005544    -0.11300
C1545       C  0.72321823  0.11104691  0.31575366    -0.01100
C1546       C  0.74357843  0.10362217  0.33019481    -0.10200
C1547       C  0.78739286  0.07588161  0.28232056     0.06300
H1548       H  0.74660564  0.09711252  0.25919982     0.08200
H1549       H  0.70959047  0.11436383  0.27840126     0.11700
H1550       H  0.74299245  0.10529475  0.35010277     0.12000
H1551       H  0.77903695  0.08635335  0.33143979     0.08300
C1552       C  0.81088978  0.07456169  0.29391198    -0.10900
C1553       C  0.82909693  0.05800992  0.28551302    -0.10200
C1554       C  0.82437017  0.04267621  0.26512753    -0.01100
C1555       C  0.80198819  0.04579819  0.25216645    -0.11300
C1556       C  0.78370219  0.06181540  0.26076968    -0.09700
H1557       H  0.81499779  0.08563040  0.31003859     0.08300
H1558       H  0.84619769  0.05615648  0.29583425     0.12000
H1559       H  0.79793986  0.03458875  0.23608086     0.11700
H1560       H  0.76610923  0.06184587  0.25118826     0.08200
C1561       C  0.75591773  0.28648860  0.43578707    -0.10900
C1562       C  0.73109444  0.28552685  0.42789595     0.06300
C1563       C  0.71537071  0.30539332  0.43389247    -0.09600
C1564       C  0.72381060  0.32481440  0.44889638    -0.11300
C1565       C  0.74811045  0.32474611  0.45816959    -0.01100
C1566       C  0.76430510  0.30585080  0.45075914    -0.10200
C1567       C  0.72113990  0.26311952  0.41516468     0.06300
H1568       H  0.69608388  0.30516039  0.42831045     0.08200
H1569       H  0.71083320  0.33885193  0.45478501     0.11700
H1570       H  0.78308507  0.30530082  0.45786464     0.12000
H1571       H  0.76863155  0.27177129  0.43114646     0.08300
C1572       C  0.70368594  0.26529523  0.39605992    -0.10900
C1573       C  0.69267657  0.24429298  0.38566466    -0.10200
C1574       C  0.69875883  0.22047491  0.39410154    -0.01100
C1575       C  0.71690143  0.21820764  0.41258510    -0.11300
C1576       C  0.72794313  0.23928000  0.42300469    -0.09700
H1577       H  0.69829392  0.28330406  0.38932547     0.08300
H1578       H  0.67893672  0.24680138  0.37130724     0.12000
H1579       H  0.72195269  0.20020858  0.41960406     0.11700
H1580       H  0.74111276  0.23691365  0.43790041     0.08200
C1581       C  0.61159130  0.19816942  0.23985878    -0.10900
C1582       C  0.59386035  0.21704856  0.24186427     0.06300
C1583       C  0.58734613  0.22529826  0.26568266    -0.09600
C1584       C  0.59786165  0.21469070  0.28681349    -0.11300
C1585       C  0.61505522  0.19537316  0.28479600    -0.01100
C1586       C  0.62198790  0.18744523  0.26100934    -0.10200
C1587       C  0.58107073  0.22720351  0.21951267     0.06300
H1588       H  0.57341640  0.23941874  0.26810265     0.08200
H1589       H  0.59190397  0.22113210  0.30478007     0.11700
H1590       H  0.63527260  0.17268867  0.25870579     0.12000
H1591       H  0.61734721  0.19152281  0.22190887     0.08300
C1592       C  0.57364309  0.25206173  0.21876026    -0.10900
C1593       C  0.55808660  0.26059789  0.19995636    -0.10200
C1594       C  0.54974949  0.24460735  0.18124145    -0.01100
C1595       C  0.55877116  0.22036077  0.18069308    -0.11300
C1596       C  0.57426333  0.21171645  0.19964507    -0.09700
H1597       H  0.57899295  0.26473408  0.23330651     0.08300
H1598       H  0.55123717  0.27934339  0.20086411     0.12000
H1599       H  0.55224069  0.20755575  0.16673331     0.11700
H1600       H  0.57945754  0.19244957  0.19957733     0.08200
C1601       C  0.58209948  0.17530762  0.47736107    -0.10900
C1602       C  0.57632671  0.20047506  0.47997011     0.06300
C1603       C  0.57996119  0.21605143  0.45942748    -0.09600
C1604       C  0.58920181  0.20676134  0.43708048    -0.11300
C1605       C  0.59482830  0.18158154  0.43453359    -0.01100
C1606       C  0.59109365  0.16600108  0.45498844    -0.10200
C1607       C  0.56581900  0.21028542  0.50364175     0.06300
H1608       H  0.57528740  0.23543137  0.46040735     0.08200
H1609       H  0.59191063  0.21932641  0.42178738     0.11700
H1610       H  0.59548614  0.14654634  0.45387921     0.12000
H1611       H  0.58000001  0.16273757  0.49272623     0.08300
C1612       C  0.54966597  0.19580234  0.51817542    -0.10900
C1613       C  0.53758812  0.20591892  0.53872825    -0.10200
C1614       C  0.54127245  0.23073114  0.54515710    -0.01100
C1615       C  0.55836824  0.24484673  0.53161267    -0.11300
C1616       C  0.57068835  0.23469653  0.51126898    -0.09700
H1617       H  0.54511739  0.17706832  0.51286916     0.08300
H1618       H  0.52395348  0.19490539  0.54847709     0.12000
H1619       H  0.56114058  0.26417540  0.53599051     0.11700
H1620       H  0.58342366  0.24629311  0.50104679     0.08200
C1621       C  0.70324427  0.04157147  0.42693234    -0.10900
C1622       C  0.68510813  0.02423520  0.43403659     0.06300
C1623       C  0.65998037  0.03057069  0.43161762    -0.09600
C1624       C  0.65315534  0.05359552  0.42214516    -0.11300
C1625       C  0.67128593  0.07099956  0.41511631    -0.01100
C1626       C  0.69642598  0.06470992  0.41768059    -0.10200
C1627       C  0.69252089  0.00031151  0.44531007     0.06300
H1628       H  0.64559067  0.01761751  0.43687462     0.08200
H1629       H  0.63360158  0.05773221  0.42026489     0.11700
H1630       H  0.71085014  0.07754021  0.41222473     0.12000
H1631       H  0.72277591  0.03740855  0.42896474     0.08300
C1632       C  0.71276151  0.98689961  0.43595339    -0.10900
C1633       C  0.72243356  0.96685992  0.44908332    -0.10200
C1634       C  0.71208545  0.95995350  0.47178964    -0.01100
C1635       C  0.69070698  0.97206227  0.48017662    -0.11300
C1636       C  0.68089637  0.99194523  0.46697599    -0.09700
H1637       H  0.72188097  0.99270539  0.41913206     0.08300
H1638       H  0.73927164  0.95813992  0.44259526     0.12000
H1639       H  0.68286351  0.96744158  0.49798265     0.11700
H1640       H  0.66539646  0.00195058  0.47475770     0.08200
C1641       C  0.17789758  0.47446971  0.58092884    -0.10900
C1642       C  0.20310222  0.47766851  0.57512969     0.06300
C1643       C  0.21916310  0.45739136  0.57815795    -0.09600
C1644       C  0.21027597  0.43467999  0.58700666    -0.11300
C1645       C  0.18507658  0.43163359  0.59293654    -0.01100
C1646       C  0.16902479  0.45182136  0.58962318    -0.10200
C1647       C  0.21240882  0.50179092  0.56532583     0.06300
H1648       H  0.23860896  0.45894878  0.57342282     0.08200
H1649       H  0.22317530  0.41959755  0.58939510     0.11700
H1650       H  0.14951215  0.45030501  0.59413636     0.12000
H1651       H  0.16499530  0.48962511  0.57915925     0.08300
C1652       C  0.19780946  0.51591140  0.54904561    -0.10900
C1653       C  0.20757114  0.53697448  0.53759055    -0.10200
C1654       C  0.23207205  0.54443491  0.54219428    -0.01100
C1655       C  0.24618371  0.53133527  0.55952752    -0.11300
C1656       C  0.23642500  0.51033931  0.57109476    -0.09700
H1657       H  0.17937231  0.50984396  0.54387026     0.08300
H1658       H  0.19667501  0.54629444  0.52364567     0.12000
H1659       H  0.26536967  0.53638131  0.56282204     0.11700
H1660       H  0.24804397  0.50029826  0.58388569     0.08200
C1661       C  0.11033452  0.31139616  0.76540522    -0.10900
C1662       C  0.09217520  0.29282736  0.76362942     0.06300
C1663       C  0.08608133  0.28358080  0.74005016    -0.09600
C1664       C  0.09751437  0.29300533  0.71880618    -0.11300
C1665       C  0.11527567  0.31197062  0.72058844    -0.01100
C1666       C  0.12170667  0.32083944  0.74420709    -0.10200
C1667       C  0.07882204  0.28388496  0.78605709     0.06300
H1668       H  0.07187274  0.26957226  0.73791137     0.08200
H1669       H  0.09194752  0.28588326  0.70095035     0.11700
H1670       H  0.13535084  0.33539878  0.74635358     0.12000
H1671       H  0.11572459  0.31873428  0.78322511     0.08300
C1672       C  0.07180549  0.25896966  0.78819989    -0.10900
C1673       C  0.05649232  0.25120051  0.80750935    -0.10200
C1674       C  0.04796903  0.26810030  0.82524011    -0.01100
C1675       C  0.05628586  0.29261546  0.82420763    -0.11300
C1676       C  0.07156465  0.30046420  0.80478116    -0.09700
H1677       H  0.07745757  0.24559794  0.77445469     0.08300
H1678       H  0.05009072  0.23223345  0.80784498     0.12000
H1679       H  0.04950188  0.30606275  0.83736783     0.11700
H1680       H  0.07642561  0.31982129  0.80363776     0.08200
C1681       C  0.08061576  0.29539715  0.54510583    -0.10900
C1682       C  0.08023912  0.31087788  0.52423309     0.06300
C1683       C  0.08855045  0.33533839  0.52683461    -0.09600
C1684       C  0.09752688  0.34392018  0.54954172    -0.11300
C1685       C  0.09842019  0.32827833  0.57028633    -0.01100
C1686       C  0.08963390  0.30396337  0.56782236    -0.10200
C1687       C  0.07076891  0.30150968  0.50006939     0.06300
H1688       H  0.08860673  0.34772177  0.51117005     0.08200
H1689       H  0.10425714  0.36274374  0.55067254     0.11700
H1690       H  0.08995313  0.29144921  0.58338101     0.12000
H1691       H  0.07379023  0.27661446  0.54391941     0.08300
C1692       C  0.07588162  0.27721677  0.49251278    -0.10900
C1693       C  0.06401506  0.26704695  0.47190153    -0.10200
C1694       C  0.04687997  0.28094835  0.45828674    -0.01100
C1695       C  0.04323431  0.30581428  0.46453064    -0.11300
C1696       C  0.05516227  0.31606396  0.48518711    -0.09700
H1697       H  0.08820854  0.26567473  0.50321587     0.08300
H1698       H  0.06668571  0.24767556  0.46773818     0.12000
H1699       H  0.02956421  0.31665335  0.45473142     0.11700
H1700       H  0.05075150  0.33480873  0.49049884     0.08200
C1701       C  0.24768601  0.41698104  0.72304860    -0.10900
C1702       C  0.27125855  0.41238120  0.71284496     0.06300
C1703       C  0.27316562  0.39544715  0.69334212    -0.09600
C1704       C  0.25199125  0.38416384  0.68358380    -0.11300
C1705       C  0.22826807  0.38953594  0.69300452    -0.01100
C1706       C  0.22640342  0.40568140  0.71322895    -0.10200
C1707       C  0.29345440  0.42650141  0.72126943     0.06300
H1708       H  0.29104459  0.39122098  0.68532323     0.08200
H1709       H  0.25422334  0.37167920  0.66812648     0.11700
H1710       H  0.20845664  0.41028213  0.72087937     0.12000
H1711       H  0.24554445  0.43015428  0.73793410     0.08300
C1712       C  0.31038917  0.43615759  0.70396622    -0.10900
C1713       C  0.32933588  0.45225253  0.71143476    -0.10200
C1714       C  0.33167504  0.45896214  0.73630397    -0.01100
C1715       C  0.31579370  0.44820291  0.75379990    -0.11300
C1716       C  0.29691286  0.43204908  0.74638092    -0.09700
H1717       H  0.30806538  0.43251928  0.68444369     0.08300
H1718       H  0.34096992  0.46087680  0.69760613     0.12000
H1719       H  0.31709188  0.45350157  0.77304818     0.11700
H1720       H  0.28443020  0.42464473  0.76016756     0.08200
C1721       C  0.19965915  0.23524809  0.60980277    -0.10900
C1722       C  0.21937160  0.23669477  0.59291427     0.06300
C1723       C  0.22897768  0.26018247  0.58698024    -0.09600
C1724       C  0.21869685  0.28164374  0.59710986    -0.11300
C1725       C  0.19844754  0.28020465  0.61334451    -0.01100
C1726       C  0.18933869  0.25668966  0.61986741    -0.10200
C1727       C  0.22891126  0.21409384  0.58031050     0.06300
H1728       H  0.24388236  0.26209574  0.57373912     0.08200
H1729       H  0.22612345  0.29939453  0.59160141     0.11700
H1730       H  0.17386934  0.25481036  0.63246832     0.12000
H1731       H  0.19201736  0.21751899  0.61507835     0.08300
C1732       C  0.25419001  0.21202749  0.57427489    -0.10900
C1733       C  0.26247246  0.19297812  0.55895910    -0.10200
C1734       C  0.24575544  0.17540244  0.54952363    -0.01100
C1735       C  0.22088608  0.17620710  0.55703517    -0.11300
C1736       C  0.21252013  0.19537764  0.57229342    -0.09700
H1737       H  0.26742334  0.22576055  0.58051449     0.08300
H1738       H  0.28168537  0.19288774  0.55310158     0.12000
H1739       H  0.20757068  0.16321096  0.54949192     0.11700
H1740       H  0.19289533  0.19644570  0.57636488     0.08200
C1741       C  0.05575196  0.42660356  0.71183672    -0.10900
C1742       C  0.03437258  0.42761429  0.69694131     0.06300
C1743       C  0.03608767  0.42053137  0.67211584    -0.09600
C1744       C  0.05854856  0.41221081  0.66245882    -0.11300
C1745       C  0.07988424  0.41077368  0.67739657    -0.01100
C1746       C  0.07828654  0.41824846  0.70217054    -0.10200
C1747       C  0.01054804  0.43667811  0.70713974     0.06300
H1748       H  0.01991319  0.42100461  0.66025514     0.08200
H1749       H  0.05900994  0.40637713  0.64334959     0.11700
H1750       H  0.09433805  0.41734607  0.71416432     0.12000
H1751       H  0.05506674  0.43242033  0.73094576     0.08300
C1752       C  0.00280784  0.42957795  0.73084704    -0.10900
C1753       C  0.98224991  0.44074644  0.74180156    -0.10200
C1754       C  0.96903259  0.45908526  0.72919325    -0.01100
C1755       C  0.97560765  0.46492714  0.70487035    -0.11300
C1756       C  0.99617159  0.45374891  0.69387128    -0.09700
H1757       H  0.01331300  0.41618190  0.74132294     0.08300
H1758       H  0.97778342  0.43645829  0.76080363     0.12000
H1759       H  0.96611620  0.47960453  0.69517043     0.11700
H1760       H  0.00180011  0.45969598  0.67564638     0.08200
C1761       C  0.17086139  0.97605608  0.42934908    -0.10900
C1762       C  0.19651329  0.97921704  0.43292312     0.06300
C1763       C  0.21233509  0.95923560  0.42796269    -0.09600
C1764       C  0.20283545  0.93673406  0.41947936    -0.11300
C1765       C  0.17723061  0.93357890  0.41566428    -0.01100
C1766       C  0.16133307  0.95352837  0.42072572    -0.10200
C1767       C  0.20690085  0.00272940  0.44287453     0.06300
H1768       H  0.23212708  0.96086000  0.43101449     0.08200
H1769       H  0.21564911  0.92185793  0.41569623     0.11700
H1770       H  0.14152448  0.95182888  0.41781462     0.12000
H1771       H  0.15819416  0.99110197  0.43294226     0.08300
C1772       C  0.19538460  0.01480563  0.46278451    -0.10900
C1773       C  0.20735864  0.03435740  0.47489810    -0.10200
C1774       C  0.23091227  0.04227886  0.46720164    -0.01100
C1775       C  0.24166112  0.03144729  0.44629878    -0.11300
C1776       C  0.22969888  0.01195982  0.43413838    -0.09700
H1777       H  0.17795739  0.00804325  0.47009435     0.08300
H1778       H  0.19908480  0.04207576  0.49138906     0.12000
H1779       H  0.26003709  0.03700909  0.44038304     0.11700
H1780       H  0.23884409  0.00333162  0.41859187     0.08200
C1781       C  0.08153968  0.79050695  0.46432620    -0.10900
C1782       C  0.07885821  0.80592420  0.48514396     0.06300
C1783       C  0.08403651  0.83123763  0.48239587    -0.09600
C1784       C  0.09175047  0.84080880  0.45965946    -0.11300
C1785       C  0.09472127  0.82535695  0.43896247    -0.01100
C1786       C  0.08945837  0.80006778  0.44159623    -0.10200
C1787       C  0.06973750  0.79579414  0.50923525     0.06300
H1788       H  0.08252244  0.84370297  0.49794071     0.08200
H1789       H  0.09588990  0.86034102  0.45847645     0.11700
H1790       H  0.09161689  0.78758835  0.42612675     0.12000
H1791       H  0.07720653  0.77102424  0.46544675     0.08300
C1792       C  0.07552190  0.77154789  0.51658269    -0.10900
C1793       C  0.06385755  0.76080988  0.53705934    -0.10200
C1794       C  0.04649953  0.77418380  0.55093782    -0.01100
C1795       C  0.04224221  0.79898371  0.54493355    -0.11300
C1796       C  0.05368283  0.80968004  0.52432268    -0.09700
H1797       H  0.08822509  0.76043320  0.50585981     0.08300
H1798       H  0.06694874  0.74146314  0.54094938     0.12000
H1799       H  0.02829685  0.80939759  0.55483374     0.11700
H1800       H  0.04848695  0.82826368  0.51926178     0.08200
C1801       C  0.08625328  0.77793581  0.27124218    -0.10900
C1802       C  0.09181841  0.78713758  0.24755645     0.06300
C1803       C  0.10953313  0.80605590  0.24542325    -0.09600
C1804       C  0.12046349  0.81637824  0.26642266    -0.11300
C1805       C  0.11399617  0.80809699  0.29020019    -0.01100
C1806       C  0.09724828  0.78828977  0.29234824    -0.10200
C1807       C  0.07795034  0.77833039  0.22539704     0.06300
H1808       H  0.11462067  0.81323334  0.22748341     0.08200
H1809       H  0.13355320  0.83139017  0.26398564     0.11700
H1810       H  0.09187245  0.78146828  0.31034219     0.12000
H1811       H  0.07253047  0.76348569  0.27357572     0.08300
C1812       C  0.07132998  0.75334113  0.22281645    -0.10900
C1813       C  0.05568570  0.74572305  0.20363048    -0.10200
C1814       C  0.04655335  0.76285520  0.18649614    -0.01100
C1815       C  0.05414240  0.78755945  0.18818282    -0.11300
C1816       C  0.06970186  0.79524221  0.20744915    -0.09700
H1817       H  0.07760443  0.73981071  0.23608996     0.08300
H1818       H  0.04966732  0.72663836  0.20285020     0.12000
H1819       H  0.04673837  0.80116561  0.17556503     0.11700
H1820       H  0.07410927  0.81468940  0.20906905     0.08200
C1821       C  0.20071030  0.73975579  0.40144592    -0.10900
C1822       C  0.21809157  0.74234716  0.42063250     0.06300
C1823       C  0.22434180  0.76632823  0.42866460    -0.09600
C1824       C  0.21326747  0.78710492  0.41806311    -0.11300
C1825       C  0.19547710  0.78445248  0.39929313    -0.01100
C1826       C  0.18950724  0.76053254  0.39095808    -0.10200
C1827       C  0.22877852  0.72028349  0.43318657     0.06300
H1828       H  0.23725445  0.76907109  0.44374436     0.08200
H1829       H  0.21810631  0.80521067  0.42508980     0.11700
H1830       H  0.17595202  0.75781881  0.37643022     0.12000
H1831       H  0.19566512  0.72164418  0.39459879     0.08300
C1832       C  0.21399186  0.69940584  0.43838059    -0.10900
C1833       C  0.22294162  0.68044882  0.45355874    -0.10200
C1834       C  0.24678189  0.68207162  0.46385677    -0.01100
C1835       C  0.26220701  0.70189750  0.45707121    -0.11300
C1836       C  0.25335589  0.72072823  0.44187871    -0.09700
H1837       H  0.19494018  0.69845802  0.43210158     0.08300
H1838       H  0.21059083  0.66554554  0.45879186     0.12000
H1839       H  0.28069803  0.70354038  0.46477441     0.11700
H1840       H  0.26547901  0.73614504  0.43773752     0.08200
C1841       C  0.24639982  0.89030956  0.71354241    -0.10900
C1842       C  0.24776869  0.91203158  0.72767097     0.06300
C1843       C  0.27131502  0.92192891  0.73320512    -0.09600
C1844       C  0.29290460  0.91098751  0.72396049    -0.11300
C1845       C  0.29152403  0.88960498  0.70933208    -0.01100
C1846       C  0.26804925  0.87906989  0.70470101    -0.10200
C1847       C  0.22491238  0.92539168  0.73538032     0.06300
H1848       H  0.27299110  0.93879327  0.74383339     0.08200
H1849       H  0.31066775  0.91957193  0.72781954     0.11700
H1850       H  0.26633021  0.86271125  0.69331538     0.12000
H1851       H  0.22855429  0.88221174  0.70906602     0.08300
C1852       C  0.20571603  0.93007468  0.71836752    -0.10900
C1853       C  0.18637624  0.94632420  0.72434863    -0.10200
C1854       C  0.18587027  0.95802746  0.74746432    -0.01100
C1855       C  0.20395094  0.95179057  0.76508082    -0.11300
C1856       C  0.22325640  0.93570282  0.75910710    -0.09700
H1857       H  0.20657131  0.92251991  0.69988432     0.08300
H1858       H  0.17293591  0.95117940  0.71031690     0.12000
H1859       H  0.20401890  0.96068984  0.78299253     0.11700
H1860       H  0.23754056  0.93217569  0.77270930     0.08200
C1861       C  0.31585394  0.95615897  0.56769178    -0.10900
C1862       C  0.31960033  0.97974921  0.57797477     0.06300
C1863       C  0.32963418  0.98152422  0.60184031    -0.09600
C1864       C  0.33606983  0.96017372  0.61494819    -0.11300
C1865       C  0.33237102  0.93655065  0.60456937    -0.01100
C1866       C  0.32210440  0.93486662  0.58080954    -0.10200
C1867       C  0.31248694  0.00213282  0.56371773     0.06300
H1868       H  0.33279665  0.99942041  0.61022627     0.08200
H1869       H  0.34397239  0.96219675  0.63321449     0.11700
H1870       H  0.31894557  0.91705542  0.57224948     0.12000
H1871       H  0.30772691  0.95413751  0.54952237     0.08300
C1872       C  0.31745094  0.00331630  0.53831146    -0.10900
C1873       C  0.30739766  0.02210671  0.52387721    -0.10200
C1874       C  0.29213393  0.04023046  0.53445649    -0.01100
C1875       C  0.28878188  0.04032296  0.56015540    -0.11300
C1876       C  0.29892018  0.02141346  0.57470583    -0.09700
H1877       H  0.32831878  0.98909109  0.52940076     0.08300
H1878       H  0.31040195  0.02172777  0.50411726     0.12000
H1879       H  0.27691231  0.05395817  0.56870545     0.11700
H1880       H  0.29480545  0.02101012  0.59425110     0.08200
C1881       C  0.45964206  0.81786935  0.49348794    -0.10900
C1882       C  0.43932808  0.80453543  0.50284061     0.06300
C1883       C  0.43163214  0.78305502  0.49027656    -0.09600
C1884       C  0.44538503  0.77394461  0.47019951    -0.11300
C1885       C  0.46674661  0.78643266  0.46202188    -0.01100
C1886       C  0.47310951  0.80897359  0.47327455    -0.10200
C1887       C  0.42759270  0.81203204  0.52664857     0.06300
H1888       H  0.41607065  0.77236258  0.49709343     0.08200
H1889       H  0.44054764  0.75615432  0.46240097     0.11700
H1890       H  0.48985174  0.81861628  0.46775896     0.12000
H1891       H  0.46581508  0.83461447  0.50257259     0.08300
C1892       C  0.44235510  0.81726286  0.54750334    -0.10900
C1893       C  0.43151734  0.82420136  0.57002748    -0.10200
C1894       C  0.40566298  0.82657113  0.57209324    -0.01100
C1895       C  0.39092048  0.82122341  0.55122147    -0.11300
C1896       C  0.40172304  0.81378291  0.52888634    -0.09700
H1897       H  0.46235160  0.81576832  0.54641205     0.08300
H1898       H  0.44339359  0.82823225  0.58565941     0.12000
H1899       H  0.37091773  0.82275595  0.55216498     0.11700
H1900       H  0.38987954  0.80984865  0.51320153     0.08200
C1901       C  0.43561769  0.80119717  0.74770153    -0.10900
C1902       C  0.42176388  0.78753127  0.76491660     0.06300
C1903       C  0.39698902  0.78156661  0.75933119    -0.09600
C1904       C  0.38601758  0.79011136  0.73744050    -0.11300
C1905       C  0.39983760  0.80418517  0.72042670    -0.01100
C1906       C  0.42487294  0.80922098  0.72564898    -0.10200
C1907       C  0.43359066  0.77956836  0.78840004     0.06300
H1908       H  0.38594616  0.77094073  0.77222317     0.08200
H1909       H  0.36665540  0.78599348  0.73395719     0.11700
H1910       H  0.43595321  0.82020865  0.71309242     0.12000
H1911       H  0.45485985  0.80572260  0.75135860     0.08300
C1912       C  0.43323369  0.75465734  0.79560994    -0.10900
C1913       C  0.44826053  0.74656102  0.81512463    -0.10200
C1914       C  0.46338596  0.76333109  0.82807877    -0.01100
C1915       C  0.46222933  0.78847603  0.82213066    -0.11300
C1916       C  0.44752662  0.79651520  0.80244064    -0.09700
H1917       H  0.42276630  0.74120784  0.78504197     0.08300
H1918       H  0.44937722  0.72699380  0.81902604     0.12000
H1919       H  0.47416948  0.80161169  0.83149422     0.11700
H1920       H  0.44796397  0.81584966  0.79739284     0.08200
C1921       C  0.28211211  0.76623189  0.58761719    -0.10900
C1922       C  0.28899882  0.74300988  0.59694996     0.06300
C1923       C  0.30382280  0.74201072  0.61820220    -0.09600
C1924       C  0.31196838  0.76376705  0.62963801    -0.11300
C1925       C  0.30594944  0.78702311  0.61974396    -0.01100
C1926       C  0.29070437  0.78801079  0.59873873    -0.10200
C1927       C  0.28177385  0.72008195  0.58362618     0.06300
H1928       H  0.30932463  0.72437694  0.62579556     0.08200
H1929       H  0.32385928  0.76233608  0.64568488     0.11700
H1930       H  0.28581302  0.80559495  0.59063549     0.12000
H1931       H  0.27085187  0.76751760  0.57111124     0.08300
C1932       C  0.25724585  0.71673013  0.57557575    -0.10900
C1933       C  0.25114138  0.69723798  0.55976490    -0.10200
C1934       C  0.26944140  0.68076787  0.55153018    -0.01100
C1935       C  0.29364488  0.68305392  0.56084087    -0.11300
C1936       C  0.29974371  0.70251190  0.57690375    -0.09700
H1937       H  0.24301978  0.72984540  0.58066486     0.08300
H1938       H  0.23243241  0.69600109  0.55253298     0.12000
H1939       H  0.30816294  0.67094584  0.55427901     0.11700
H1940       H  0.31884016  0.70478551  0.58273450     0.08200
C1941       C  0.07189062  0.24992001  0.28453155    -0.10900
C1942       C  0.08119253  0.22575902  0.28382764     0.06300
C1943       C  0.07644376  0.20999589  0.30394519    -0.09600
C1944       C  0.06102374  0.21766009  0.32337618    -0.11300
C1945       C  0.05031588  0.24124478  0.32302976    -0.01100
C1946       C  0.05669809  0.25757608  0.30392186    -0.10200
C1947       C  0.09378570  0.21654970  0.26117953     0.06300
H1948       H  0.08328254  0.19122342  0.30383847     0.08200
H1949       H  0.05597628  0.20459368  0.33763001     0.11700
H1950       H  0.04849093  0.27578930  0.30316124     0.12000
H1951       H  0.07552682  0.26257912  0.26950963     0.08300
C1952       C  0.08352068  0.22135318  0.23779436    -0.10900
C1953       C  0.09438893  0.21180761  0.21638608    -0.10200
C1954       C  0.11601524  0.19749259  0.21777114    -0.01100
C1955       C  0.12662717  0.19314386  0.24112782    -0.11300
C1956       C  0.11549484  0.20237132  0.26261303    -0.09700
H1957       H  0.06660942  0.23195058  0.23611153     0.08300
H1958       H  0.08567623  0.21540694  0.19874626     0.12000
H1959       H  0.14315796  0.18198608  0.24287549     0.11700
H1960       H  0.12383286  0.19842228  0.28035517     0.08200
C1961       C  0.06602384  0.19408726  0.04698994    -0.10900
C1962       C  0.07827987  0.19336635  0.02404550     0.06300
C1963       C  0.10273066  0.18456117  0.02326631    -0.09600
C1964       C  0.11446291  0.17627623  0.04478984    -0.11300
C1965       C  0.10216759  0.17684414  0.06773903    -0.01100
C1966       C  0.07784484  0.18604191  0.06857448    -0.10200
C1967       C  0.06553608  0.20203734  0.00119281     0.06300
H1968       H  0.11265703  0.18371238  0.00592709     0.08200
H1969       H  0.13326517  0.16943821  0.04342026     0.11700
H1970       H  0.06785281  0.18684368  0.08587735     0.12000
H1971       H  0.04731126  0.20117306  0.04830216     0.08300
C1972       C  0.04047000  0.19610896  0.99709355    -0.10900
C1973       C  0.02744462  0.20668776  0.97749063    -0.10200
C1974       C  0.03912925  0.22343059  0.96146681    -0.01100
C1975       C  0.06457655  0.22816508  0.96444028    -0.11300
C1976       C  0.07772352  0.21744863  0.98408210    -0.09700
H1977       H  0.03066811  0.18396168  0.00962188     0.08300
H1978       H  0.00773699  0.20306757  0.97576612     0.12000
H1979       H  0.07381430  0.24147828  0.95269030     0.11700
H1980       H  0.09700902  0.22243611  0.98676909     0.08200
C1981       C  0.29129576  0.92710457  0.25855433    -0.10900
C1982       C  0.28912830  0.92115155  0.28371652     0.06300
C1983       C  0.30784879  0.92938782  0.30000496    -0.09600
C1984       C  0.32704569  0.94479518  0.29169226    -0.11300
C1985       C  0.32786643  0.95234171  0.26697900    -0.01100
C1986       C  0.31037557  0.94261124  0.25032063    -0.10200
C1987       C  0.26642348  0.90847564  0.29334076     0.06300
H1988       H  0.30674013  0.92541767  0.31954174     0.08200
H1989       H  0.33998530  0.95248384  0.30495914     0.11700
H1990       H  0.31052199  0.94839809  0.23119196     0.12000
H1991       H  0.27760603  0.92068152  0.24538137     0.08300
C1992       C  0.26793372  0.89219933  0.31343694    -0.10900
C1993       C  0.24644290  0.88255832  0.32426147    -0.10200
C1994       C  0.22275824  0.88882510  0.31527779    -0.01100
C1995       C  0.22120840  0.90422428  0.29449797    -0.11300
C1996       C  0.24276446  0.91396757  0.28369639    -0.09700
H1997       H  0.28576714  0.88716404  0.32108743     0.08300
H1998       H  0.24843694  0.87054030  0.34008207     0.12000
H1999       H  0.20332068  0.90943863  0.28708645     0.11700
H2000       H  0.24077854  0.92667486  0.26843479     0.08200
C2001       C  0.23792806  0.07195179  0.22131341    -0.10900
C2002       C  0.26159134  0.08252293  0.21784332     0.06300
C2003       C  0.26338411  0.10492821  0.20498153    -0.09600
C2004       C  0.24203196  0.11656784  0.19597179    -0.11300
C2005       C  0.21837856  0.10587628  0.19920975    -0.01100
C2006       C  0.21661517  0.08337139  0.21193817    -0.10200
C2007       C  0.28417367  0.06982203  0.22733878     0.06300
H2008       H  0.28130169  0.11353633  0.20203817     0.08200
H2009       H  0.24412253  0.13373040  0.18596081     0.11700
H2010       H  0.19876317  0.07453015  0.21457321     0.12000
H2011       H  0.23595633  0.05450231  0.23084343     0.08300
C2012       C  0.28397060  0.05919306  0.25093555    -0.10900
C2013       C  0.30358595  0.04438082  0.25878822    -0.10200
C2014       C  0.32383384  0.03954796  0.24316378    -0.01100
C2015       C  0.32506837  0.05166276  0.22030670    -0.11300
C2016       C  0.30541139  0.06676812  0.21247791    -0.09700
H2017       H  0.26817222  0.06163524  0.26302621     0.08300
H2018       H  0.30223365  0.03536756  0.27656733     0.12000
H2019       H  0.34030925  0.04804902  0.20781454     0.11700
H2020       H  0.30612212  0.07477875  0.19420484     0.08200
C2021       C  0.19933677  0.99486674  0.03858880    -0.10900
C2022       C  0.20601036  0.99965675  0.06317734     0.06300
C2023       C  0.22228171  0.98329966  0.07519958    -0.09600
C2024       C  0.23298037  0.96356234  0.06226956    -0.11300
C2025       C  0.22742630  0.95989656  0.03723329    -0.01100
C2026       C  0.20992716  0.97521815  0.02577653    -0.10200
C2027       C  0.19700997  0.02240954  0.07558126     0.06300
H2028       H  0.22779284  0.98659057  0.09414070     0.08200
H2029       H  0.24676557  0.95221831  0.07130414     0.11700
H2030       H  0.20551551  0.97276589  0.00641784     0.12000
H2031       H  0.18648888  0.00683027  0.02900663     0.08300
C2032       C  0.19700701  0.04508700  0.06292530    -0.10900
C2033       C  0.18848046  0.06660043  0.07438735    -0.10200
C2034       C  0.17953956  0.06588634  0.09870545    -0.01100
C2035       C  0.17964975  0.04320008  0.11138314    -0.11300
C2036       C  0.18843109  0.02174852  0.10000277    -0.09700
H2037       H  0.20389519  0.04623656  0.04419620     0.08300
H2038       H  0.18878477  0.08375847  0.06416143     0.12000
H2039       H  0.17308703  0.04202250  0.13022459     0.11700
H2040       H  0.18816432  0.00455706  0.11017370     0.08200
C2041       C  0.21568405  0.29925161  0.07485702    -0.10900
C2042       C  0.23227411  0.28001914  0.08030889     0.06300
C2043       C  0.25673908  0.28157217  0.07167023    -0.09600
C2044       C  0.26409119  0.30113981  0.05658117    -0.11300
C2045       C  0.24708029  0.31944752  0.04959035    -0.01100
C2046       C  0.22300563  0.31879310  0.05945297    -0.10200
C2047       C  0.22357324  0.25717734  0.09267200     0.06300
H2048       H  0.26985184  0.26702371  0.07570777     0.08200
H2049       H  0.28263395  0.30107677  0.04887818     0.11700
H2050       H  0.20941528  0.33233259  0.05380534     0.12000
H2051       H  0.19664081  0.29829249  0.08115892     0.08300
C2052       C  0.21165026  0.25805254  0.11565070    -0.10900
C2053       C  0.20270332  0.23635513  0.12660440    -0.10200
C2054       C  0.20501284  0.21345377  0.11449563    -0.01100
C2055       C  0.21725349  0.21264950  0.09162348    -0.11300
C2056       C  0.22660823  0.23424173  0.08094706    -0.09700
H2057       H  0.20916394  0.27553122  0.12502777     0.08300
H2058       H  0.19318357  0.23764756  0.14414436     0.12000
H2059       H  0.21924667  0.19537429  0.08176241     0.11700
H2060       H  0.23559806  0.23314952  0.06310903     0.08200
C2061       C  0.99763848  0.93693419  0.27689356    -0.10900
C2062       C  0.00482599  0.94263184  0.30121160     0.06300
C2063       C  0.99030498  0.95944005  0.31477581    -0.09600
C2064       C  0.97006803  0.97137030  0.30373645    -0.11300
C2065       C  0.96390107  0.96658483  0.27902501    -0.01100
C2066       C  0.97750663  0.94886979  0.26591323    -0.10200
C2067       C  0.02807842  0.93205059  0.31176825     0.06300
H2068       H  0.99541275  0.96442842  0.33346134     0.08200
H2069       H  0.96027233  0.98549508  0.31394067     0.11700
H2070       H  0.97336252  0.94528678  0.24666726     0.12000
H2071       H  0.00806266  0.92376666  0.26606253     0.08300
C2072       C  0.02931069  0.92473123  0.33660840    -0.10900
C2073       C  0.05114810  0.91467792  0.34631983    -0.10200
C2074       C  0.07237525  0.91171696  0.33147075    -0.01100
C2075       C  0.07123841  0.91933223  0.30671522    -0.11300
C2076       C  0.04941069  0.92939754  0.29701938    -0.09700
H2077       H  0.01322872  0.92633127  0.34844344     0.08300
H2078       H  0.05124808  0.90888306  0.36543668     0.12000
H2079       H  0.08718212  0.91738378  0.29474446     0.11700
H2080       H  0.04932044  0.93530610  0.27793934     0.08200
C2081       C  0.98401269  0.07257631  0.21392337    -0.10900
C2082       C  0.00083537  0.06091434  0.19780656     0.06300
C2083       C  0.99627803  0.03630625  0.19094301    -0.09600
C2084       C  0.97669497  0.02306417  0.20146124    -0.11300
C2085       C  0.96116490  0.03406380  0.21910705    -0.01100
C2086       C  0.96437246  0.05920138  0.22458117    -0.10200
C2087       C  0.02405402  0.07354117  0.18962979     0.06300
H2088       H  0.00853116  0.02695175  0.17819218     0.08200
H2089       H  0.97470224  0.00362918  0.19713185     0.11700
H2090       H  0.95293651  0.06793630  0.23847689     0.12000
H2091       H  0.98702427  0.09152301  0.21958427     0.08300
C2092       C  0.02387096  0.09833574  0.18217368    -0.10900
C2093       C  0.04583822  0.11004109  0.17473887    -0.10200
C2094       C  0.06863733  0.09734044  0.17482248    -0.01100
C2095       C  0.06884722  0.07260715  0.18251409    -0.11300
C2096       C  0.04682525  0.06083871  0.18973160    -0.09700
H2097       H  0.00667581  0.10860607  0.18181162     0.08300
H2098       H  0.04493909  0.12915270  0.16900664     0.12000
H2099       H  0.08601312  0.06229192  0.18286591     0.11700
H2100       H  0.04768277  0.04182765  0.19578859     0.08200
C2101       C  0.50830465  0.97296181  0.69809538    -0.10900
C2102       C  0.50714538  0.94718571  0.70027632     0.06300
C2103       C  0.52701372  0.93480629  0.71170227    -0.09600
C2104       C  0.54658209  0.94819386  0.72257791    -0.11300
C2105       C  0.54660567  0.97411795  0.72200737    -0.01100
C2106       C  0.52783744  0.98623185  0.70870035    -0.10200
C2107       C  0.48429355  0.93373427  0.69250617     0.06300
H2108       H  0.52660517  0.91491732  0.71359504     0.08200
H2109       H  0.56070292  0.93841634  0.73284668     0.11700
H2110       H  0.52754778  0.00619988  0.70774168     0.12000
H2111       H  0.49355149  0.98295032  0.68896351     0.08300
C2112       C  0.46081334  0.94267377  0.69940102    -0.10900
C2113       C  0.43913072  0.92999772  0.69274461    -0.10200
C2114       C  0.44034817  0.90811116  0.67886387    -0.01100
C2115       C  0.46388363  0.89926127  0.67182473    -0.11300
C2116       C  0.48559903  0.91185758  0.67868461    -0.09700
H2117       H  0.45924953  0.95932496  0.71035429     0.08300
H2118       H  0.42140939  0.93731752  0.69858372     0.12000
H2119       H  0.46556825  0.88249398  0.66107975     0.11700
H2120       H  0.50341440  0.90461646  0.67302190     0.08200
C2121       C  0.31727325  0.02155781  0.90467051    -0.10900
C2122       C  0.31468615  0.02012916  0.93039985     0.06300
C2123       C  0.31995424  0.04125625  0.94466978    -0.09600
C2124       C  0.32774707  0.06327549  0.93346733    -0.11300
C2125       C  0.33089970  0.06451891  0.90778130    -0.01100
C2126       C  0.32552301  0.04340214  0.89351850    -0.10200
C2127       C  0.30616634  0.99687948  0.94241551     0.06300
H2128       H  0.31776717  0.04080386  0.96452125     0.08200
H2129       H  0.33171912  0.07919453  0.94494023     0.11700
H2130       H  0.32757601  0.04380640  0.87364870     0.12000
H2131       H  0.31331628  0.00562399  0.89321000     0.08300
C2132       C  0.28521358  0.98405993  0.93355087    -0.10900
C2133       C  0.27533638  0.96408725  0.94680145    -0.10200
C2134       C  0.28649601  0.95629970  0.96886274    -0.01100
C2135       C  0.30830985  0.96807709  0.97684985    -0.11300
C2136       C  0.31804128  0.98816633  0.96378145    -0.09700
H2137       H  0.27556786  0.99046159  0.91725022     0.08300
H2138       H  0.25800832  0.95585115  0.94079157     0.12000
H2139       H  0.31677913  0.96285799  0.99419828     0.11700
H2140       H  0.33434492  0.99751396  0.97089800     0.08200
C2141       C  0.29804631  0.29975646  0.93528719    -0.10900
C2142       C  0.28106778  0.28067778  0.92991933     0.06300
C2143       C  0.25669128  0.28254273  0.93875002    -0.09600
C2144       C  0.24997943  0.30197508  0.95429796    -0.11300
C2145       C  0.26755410  0.31982330  0.96151359    -0.01100
C2146       C  0.29135254  0.31917233  0.95106331    -0.10200
C2147       C  0.28941195  0.25773264  0.91747008     0.06300
H2148       H  0.24317388  0.26828660  0.93459600     0.08200
H2149       H  0.23152014  0.30209838  0.96218839     0.11700
H2150       H  0.30530336  0.33249157  0.95665434     0.12000
H2151       H  0.31699160  0.29869811  0.92874815     0.08300
C2152       C  0.30364207  0.25877095  0.89585154    -0.10900
C2153       C  0.31290066  0.23712278  0.88524676    -0.10200
C2154       C  0.30858137  0.21398863  0.89632283    -0.01100
C2155       C  0.29404602  0.21293583  0.91778486    -0.11300
C2156       C  0.28435849  0.23456575  0.92810622    -0.09700
H2157       H  0.30777259  0.27636569  0.88729170     0.08300
H2158       H  0.32417788  0.23860708  0.86878608     0.12000
H2159       H  0.29042614  0.19544364  0.92675938     0.11700
H2160       H  0.27363840  0.23328589  0.94495151     0.08200
C2161       C  0.40990772  0.18527294  0.98448315    -0.10900
C2162       C  0.43449617  0.19380778  0.98360312     0.06300
C2163       C  0.44710589  0.19322461  0.96084159    -0.09600
C2164       C  0.43534167  0.18442465  0.93945427    -0.11300
C2165       C  0.41077090  0.17573388  0.94038240    -0.01100
C2166       C  0.39825622  0.17621268  0.96320882    -0.10200
C2167       C  0.44692913  0.20360489  0.00618998     0.06300
H2168       H  0.46598834  0.19997282  0.95949718     0.08200
H2169       H  0.44551207  0.18434618  0.92223055     0.11700
H2170       H  0.37928166  0.16974801  0.96464316     0.12000
H2171       H  0.39975600  0.18534998  0.00172039     0.08300
C2172       C  0.43466731  0.22012828  0.02213306    -0.10900
C2173       C  0.44745112  0.23146039  0.04173516    -0.10200
C2174       C  0.47259242  0.22624368  0.04583548    -0.01100
C2175       C  0.48433603  0.20860319  0.03088154    -0.11300
C2176       C  0.47168120  0.19742891  0.01129603    -0.09700
H2177       H  0.41562736  0.22534894  0.01859241     0.08300
H2178       H  0.43821596  0.24546153  0.05261879     0.12000
H2179       H  0.50383769  0.20459803  0.03348656     0.11700
H2180       H  0.48151094  0.18449416  0.99963891     0.08200
C2181       C  0.20483546  0.07497531  0.79354039    -0.10900
C2182       C  0.22554604  0.07836641  0.77804672     0.06300
C2183       C  0.22510941  0.06786054  0.75436493    -0.09600
C2184       C  0.20552140  0.05254721  0.74713459    -0.11300
C2185       C  0.18597813  0.04721268  0.76346196    -0.01100
C2186       C  0.18520704  0.05941259  0.78632106    -0.10200
C2187       C  0.24858867  0.09047133  0.78730183     0.06300
H2188       H  0.24056752  0.07050281  0.74187687     0.08200
H2189       H  0.20654727  0.04330334  0.72942578     0.11700
H2190       H  0.17053881  0.05532369  0.79935028     0.12000
H2191       H  0.20468439  0.08284785  0.81191521     0.08300
C2192       C  0.24771146  0.11266936  0.80064816    -0.10900
C2193       C  0.26949956  0.12319401  0.81018734    -0.10200
C2194       C  0.29260043  0.11151392  0.80697287    -0.01100
C2195       C  0.29344882  0.08940973  0.79345529    -0.11300
C2196       C  0.27174119  0.07911240  0.78360964    -0.09700
H2197       H  0.23016385  0.12183231  0.80375277     0.08300
H2198       H  0.26813711  0.14014336  0.82069991     0.12000
H2199       H  0.31086099  0.07987554  0.79075118     0.11700
H2200       H  0.27296413  0.06178891  0.77370320     0.08200
C2201       C  0.46568886  0.06175395  0.81713870    -0.10900
C2202       C  0.48803775  0.07529099  0.81679059     0.06300
C2203       C  0.48766847  0.10009787  0.82424133    -0.09600
C2204       C  0.46553616  0.11099613  0.83224377    -0.11300
C2205       C  0.44311017  0.09748340  0.83256285    -0.01100
C2206       C  0.44345448  0.07276496  0.82473477    -0.10200
C2207       C  0.51141063  0.06348908  0.80816402     0.06300
H2208       H  0.50457149  0.11097376  0.82413771     0.08200
H2209       H  0.46596350  0.13014735  0.83796867     0.11700
H2210       H  0.42657290  0.06186568  0.82465128     0.12000
H2211       H  0.46536621  0.04268103  0.81114993     0.08300
C2212       C  0.51797938  0.03993857  0.81672428    -0.10900
C2213       C  0.53778477  0.02713705  0.80609712    -0.10200
C2214       C  0.55143385  0.03755788  0.78664376    -0.01100
C2215       C  0.54594817  0.06171674  0.77908706    -0.11300
C2216       C  0.52622935  0.07468740  0.78992396    -0.09700
H2217       H  0.50706618  0.03098300  0.83092155     0.08300
H2218       H  0.54130077  0.00831778  0.81180296     0.12000
H2219       H  0.55571598  0.06981600  0.76361126     0.11700
H2220       H  0.52151244  0.09276985  0.78288656     0.08200
C2221       C  0.43352773  0.19728696  0.76369830    -0.10900
C2222       C  0.41859927  0.20736891  0.74499074     0.06300
C2223       C  0.39354123  0.21222339  0.75012759    -0.09600
C2224       C  0.38338953  0.20597927  0.77313873    -0.11300
C2225       C  0.39826137  0.19529878  0.79162063    -0.01100
C2226       C  0.42353968  0.19148599  0.78675576    -0.10200
C2227       C  0.42964251  0.21293380  0.72046621     0.06300
H2228       H  0.38165723  0.22010963  0.73609690     0.08200
H2229       H  0.36380705  0.20902286  0.77630254     0.11700
H2230       H  0.43544422  0.18303990  0.80044275     0.12000
H2231       H  0.45301833  0.19379027  0.76043959     0.08300
C2232       C  0.42640296  0.23614748  0.70935912    -0.10900
C2233       C  0.44094617  0.24305038  0.68902469    -0.10200
C2234       C  0.45861258  0.22671585  0.67933052    -0.01100
C2235       C  0.46012765  0.20275610  0.68897265    -0.11300
C2236       C  0.44577073  0.19591568  0.70931870    -0.09700
H2237       H  0.41415359  0.24962942  0.71759465     0.08300
H2238       H  0.43997463  0.26183846  0.68228494     0.12000
H2239       H  0.47400929  0.19007559  0.68212446     0.11700
H2240       H  0.44835350  0.17776753  0.71726632     0.08200
C2241       C  0.74996088  0.21730641  0.93585163    -0.10900
C2242       C  0.72481949  0.21936255  0.92912126     0.06300
C2243       C  0.70816743  0.20095824  0.93730225    -0.09600
C2244       C  0.71612516  0.18205440  0.95305447    -0.11300
C2245       C  0.74082063  0.18124468  0.96112460    -0.01100
C2246       C  0.75779599  0.19861894  0.95183540    -0.10200
C2247       C  0.71564298  0.24156204  0.91546653     0.06300
H2248       H  0.68862444  0.20196946  0.93284933     0.08200
H2249       H  0.70261128  0.16917975  0.96039699     0.11700
H2250       H  0.77692132  0.19845703  0.95800011     0.12000
H2251       H  0.76348193  0.23066846  0.92949792     0.08300
C2252       C  0.72610872  0.26507533  0.91979972    -0.10900
C2253       C  0.71604885  0.28624873  0.90889530    -0.10200
C2254       C  0.69512349  0.28454805  0.89350801    -0.01100
C2255       C  0.68519163  0.26099585  0.88847018    -0.11300
C2256       C  0.69534643  0.23982400  0.89921850    -0.09700
H2257       H  0.74148213  0.26734979  0.93245708     0.08300
H2258       H  0.72416865  0.30405128  0.91322370     0.12000
H2259       H  0.66919591  0.25890592  0.87654295     0.11700
H2260       H  0.68705100  0.22209152  0.89498141     0.08200
C2261       C  0.54165994  0.31919259  0.01332057    -0.10900
C2262       C  0.56267367  0.30762848  0.00315120     0.06300
C2263       C  0.57245523  0.28691011  0.01541184    -0.09600
C2264       C  0.56060706  0.27709875  0.03626049    -0.11300
C2265       C  0.53887637  0.28790816  0.04547778    -0.01100
C2266       C  0.52987018  0.30937296  0.03417162    -0.10200
C2267       C  0.57341186  0.31631924  0.97920043     0.06300
H2268       H  0.58881841  0.27773906  0.00839787     0.08200
H2269       H  0.56743891  0.26009475  0.04419421     0.11700
H2270       H  0.51262428  0.31748672  0.04039445     0.12000
H2271       H  0.53336539  0.33493803  0.00429194     0.08300
C2272       C  0.58225177  0.29932495  0.96159508    -0.10900
C2273       C  0.59203915  0.30741570  0.93902932    -0.10200
C2274       C  0.59333250  0.33272264  0.93346996    -0.01100
C2275       C  0.58423308  0.34969393  0.95091194    -0.11300
C2276       C  0.57436502  0.34160755  0.97341243    -0.09700
H2277       H  0.58138876  0.27968957  0.96513199     0.08300
H2278       H  0.59899919  0.29383167  0.92611307     0.12000
H2279       H  0.58499766  0.36933036  0.94730910     0.11700
H2280       H  0.56791971  0.35526640  0.98650146     0.08200
C2281       C  0.77045052  0.39515029  0.80954073    -0.10900
C2282       C  0.76885611  0.41442562  0.79234046     0.06300
C2283       C  0.74517922  0.42246825  0.78486693    -0.09600
C2284       C  0.72364775  0.41177394  0.79467698    -0.11300
C2285       C  0.72528835  0.39289293  0.81231297    -0.01100
C2286       C  0.74895106  0.38454008  0.81941751    -0.10200
C2287       C  0.79164438  0.42690336  0.78294724     0.06300
H2288       H  0.74327802  0.43759462  0.77197975     0.08200
H2289       H  0.70574835  0.41885163  0.78906410     0.11700
H2290       H  0.75088588  0.36994900  0.83290882     0.12000
H2291       H  0.78835140  0.38834741  0.81547465     0.08300
C2292       C  0.81145576  0.43281884  0.79892847    -0.10900
C2293       C  0.83118841  0.44768510  0.79080929    -0.10200
C2294       C  0.83139669  0.45686105  0.76661779    -0.01100
C2295       C  0.81262535  0.44938610  0.75019151    -0.11300
C2296       C  0.79299391  0.43458337  0.75824585    -0.09700
H2297       H  0.81094464  0.42726683  0.81810127     0.08300
H2298       H  0.84527346  0.45347471  0.80388234     0.12000
H2299       H  0.81243901  0.45622353  0.73141840     0.11700
H2300       H  0.77837049  0.42988311  0.74533407     0.08200
C2301       C  0.53159357  0.42230922  0.83004050    -0.10900
C2302       C  0.52985360  0.42976724  0.80530258     0.06300
C2303       C  0.55114264  0.42824688  0.79031842    -0.09600
C2304       C  0.57360045  0.41949081  0.79989687    -0.11300
C2305       C  0.57531679  0.41223603  0.82472628    -0.01100
C2306       C  0.55401208  0.41374843  0.83963472    -0.10200
C2307       C  0.50630091  0.44023974  0.79554274     0.06300
H2308       H  0.55058708  0.43425113  0.77127960     0.08200
H2309       H  0.58960176  0.41844443  0.78788088     0.11700
H2310       H  0.55450783  0.40795055  0.85874356     0.12000
H2311       H  0.51552970  0.42290515  0.84199984     0.08300
C2312       C  0.49879138  0.43570696  0.77107985    -0.10900
C2313       C  0.47865687  0.44839170  0.76096221    -0.10200
C2314       C  0.46552163  0.46560184  0.77517950    -0.01100
C2315       C  0.47181523  0.46888270  0.80004494    -0.11300
C2316       C  0.49200353  0.45630638  0.81016456    -0.09700
H2317       H  0.50910773  0.42313590  0.75945558     0.08300
H2318       H  0.47439958  0.44607777  0.74155433     0.12000
H2319       H  0.46238568  0.48266242  0.81105088     0.11700
H2320       H  0.49739784  0.46047595  0.82896183     0.08200
C2321       C  0.60697136  0.30575679  0.74200499    -0.10900
C2322       C  0.58818976  0.28801857  0.74535899     0.06300
C2323       C  0.58207069  0.28105660  0.76969028    -0.09600
C2324       C  0.59396565  0.29199362  0.79003658    -0.11300
C2325       C  0.61222429  0.31025969  0.78660783    -0.01100
C2326       C  0.61875679  0.31673499  0.76229080    -0.10200
C2327       C  0.57432169  0.27764871  0.72370463     0.06300
H2328       H  0.56746745  0.26773005  0.77309350     0.08200
H2329       H  0.58833011  0.28665607  0.80845307     0.11700
H2330       H  0.63281552  0.33063310  0.75885607     0.12000
H2331       H  0.61253463  0.31129925  0.72363467     0.08300
C2332       C  0.56826936  0.29260664  0.70328125    -0.10900
C2333       C  0.55305488  0.28363549  0.68421048    -0.10200
C2334       C  0.54342500  0.25956383  0.68517849    -0.01100
C2335       C  0.55067856  0.24415090  0.70477500    -0.11300
C2336       C  0.56591440  0.25304850  0.72375488    -0.09700
H2337       H  0.57417917  0.31170496  0.70262804     0.08300
H2338       H  0.54750599  0.29602474  0.66956140     0.12000
H2339       H  0.54365676  0.22542732  0.70592622     0.11700
H2340       H  0.57064338  0.24077741  0.73877425     0.08200
C2341       C  0.68141074  0.47960300  0.91779426    -0.10900
C2342       C  0.70446877  0.47910229  0.92993405     0.06300
C2343       C  0.71628476  0.45615036  0.93298479    -0.09600
C2344       C  0.70557211  0.43439600  0.92382516    -0.11300
C2345       C  0.68261661  0.43491749  0.91155113    -0.01100
C2346       C  0.67060754  0.45779698  0.90876209    -0.10200
C2347       C  0.71602867  0.50215805  0.93997546     0.06300
H2348       H  0.73377407  0.45492321  0.94272919     0.08200
H2349       H  0.71530270  0.41713298  0.92637000     0.11700
H2350       H  0.65303939  0.45894702  0.89913656     0.12000
H2351       H  0.67187567  0.49691680  0.91492029     0.08300
C2352       C  0.70156848  0.52033284  0.95173297    -0.10900
C2353       C  0.71288425  0.54014973  0.96417950    -0.10200
C2354       C  0.73882863  0.54214118  0.96510712    -0.01100
C2355       C  0.75317376  0.52506805  0.95185111    -0.11300
C2356       C  0.74192655  0.50539342  0.93935680    -0.09700
H2357       H  0.68159741  0.51842030  0.95266756     0.08300
H2358       H  0.70146814  0.55282228  0.97462390     0.12000
H2359       H  0.77323911  0.52616268  0.95240594     0.11700
H2360       H  0.75361630  0.49216638  0.92996796     0.08200
C2361       C  0.93789370  0.29766338  0.98369800    -0.10900
C2362       C  0.95045028  0.31070921  0.00249801     0.06300
C2363       C  0.97611529  0.31455193  0.00010716    -0.09600
C2364       C  0.98920537  0.30398065  0.98056573    -0.11300
C2365       C  0.97700797  0.28925502  0.96291739    -0.01100
C2366       C  0.95109354  0.28696977  0.96407589    -0.10200
C2367       C  0.93735304  0.31875812  0.02537052     0.06300
H2368       H  0.98625449  0.32497826  0.01390406     0.08200
H2369       H  0.00920459  0.30599533  0.98006619     0.11700
H2370       H  0.94133310  0.27543157  0.95090464     0.12000
H2371       H  0.91811610  0.29436897  0.98499701     0.08300
C2372       C  0.91356788  0.32916049  0.02427018    -0.10900
C2373       C  0.90124145  0.33618809  0.04590220    -0.10200
C2374       C  0.91228824  0.33282225  0.06925639    -0.01100
C2375       C  0.93608498  0.32240105  0.07034024    -0.11300
C2376       C  0.94846182  0.31550067  0.04868452    -0.09700
H2377       H  0.90456014  0.33205821  0.00664654     0.08300
H2378       H  0.88293122  0.34417465  0.04428475     0.12000
H2379       H  0.94513050  0.31945741  0.08793582     0.11700
H2380       H  0.96661087  0.30714721  0.05022974     0.08200
C2381       C  0.93202157  0.28466297  0.23941119    -0.10900
C2382       C  0.91837800  0.28412910  0.26151096     0.06300
C2383       C  0.89404636  0.29316859  0.26153733    -0.09600
C2384       C  0.88359662  0.30269845  0.23986017    -0.11300
C2385       C  0.89746290  0.30386613  0.21782082    -0.01100
C2386       C  0.92177709  0.29460020  0.21786728    -0.10200
C2387       C  0.93011134  0.27468687  0.28441018     0.06300
H2388       H  0.88317046  0.29288465  0.27833182     0.08200
H2389       H  0.86485711  0.30978619  0.24055941     0.11700
H2390       H  0.93301911  0.29529561  0.20132924     0.12000
H2391       H  0.95091599  0.27793960  0.23900424     0.08300
C2392       C  0.94102615  0.25126035  0.28442094    -0.10900
C2393       C  0.95620365  0.24395796  0.30395550    -0.10200
C2394       C  0.96137892  0.26016616  0.32364799    -0.01100
C2395       C  0.94866948  0.28274132  0.32477346    -0.11300
C2396       C  0.93299577  0.28989891  0.30530628    -0.09700
H2397       H  0.93883031  0.23910685  0.26867507     0.08300
H2398       H  0.96561806  0.22636747  0.30269632     0.12000
H2399       H  0.95246316  0.29566158  0.33957562     0.11700
H2400       H  0.92468260  0.30806235  0.30568918     0.08200
C2401       C  0.02279470  0.45274011  0.20111352    -0.10900
C2402       C  0.00221739  0.44452536  0.21489672     0.06300
C2403       C  0.00250407  0.44766217  0.24060202    -0.09600
C2404       C  0.02212680  0.46003398  0.25210794    -0.11300
C2405       C  0.04182928  0.46986818  0.23817870    -0.01100
C2406       C  0.04241713  0.46540420  0.21266495    -0.10200
C2407       C  0.98017815  0.43325396  0.20266441     0.06300
H2408       H  0.98720484  0.44105101  0.25176293     0.08200
H2409       H  0.02123403  0.46322622  0.27182463     0.11700
H2410       H  0.05715702  0.47312914  0.20147696     0.12000
H2411       H  0.02307919  0.45050747  0.18126148     0.08300
C2412       C  0.98305845  0.41485014  0.18468417    -0.10900
C2413       C  0.96229498  0.40320275  0.17432242    -0.10200
C2414       C  0.93809060  0.40986147  0.18147323    -0.01100
C2415       C  0.93520175  0.42895005  0.19881237    -0.11300
C2416       C  0.95601611  0.44041921  0.20938126    -0.09700
H2417       H  0.00141027  0.40892724  0.17918552     0.08300
H2418       H  0.96525804  0.38865914  0.16093682     0.12000
H2419       H  0.91688339  0.43461316  0.20467818     0.11700
H2420       H  0.95323896  0.45484572  0.22294006     0.08200
C2421       C  0.75592484  0.22017348  0.07010781    -0.10900
C2422       C  0.78017938  0.22074121  0.07950215     0.06300
C2423       C  0.79577124  0.20038520  0.07514821    -0.09600
C2424       C  0.78795778  0.18095448  0.05972663    -0.11300
C2425       C  0.76438269  0.18155659  0.04868797    -0.01100
C2426       C  0.74808574  0.20075596  0.05500085    -0.10200
C2427       C  0.78975651  0.24358124  0.09152870     0.06300
H2428       H  0.81457713  0.20037069  0.08219456     0.08200
H2429       H  0.80096170  0.16655239  0.05489145     0.11700
H2430       H  0.72981847  0.20163949  0.04669774     0.12000
H2431       H  0.74340422  0.23539446  0.07349312     0.08300
C2432       C  0.78628772  0.26664391  0.08013053    -0.10900
C2433       C  0.79611077  0.28822713  0.09058153    -0.10200
C2434       C  0.80927358  0.28733288  0.11293664    -0.01100
C2435       C  0.81234679  0.26428136  0.12457061    -0.11300
C2436       C  0.80291869  0.24261880  0.11385131    -0.09700
H2437       H  0.77646070  0.26788607  0.06273871     0.08300
H2438       H  0.79350826  0.30560096  0.08108616     0.12000
H2439       H  0.82259230  0.26288463  0.14170407     0.11700
H2440       H  0.80585045  0.22511764  0.12301591     0.08200
C2441       C  0.81999549  0.48127372  0.10605284    -0.10900
C2442       C  0.81681762  0.48241194  0.08038154     0.06300
C2443       C  0.82048954  0.46088883  0.06629811    -0.09600
C2444       C  0.82728869  0.43871440  0.07760503    -0.11300
C2445       C  0.83093939  0.43765546  0.10322033    -0.01100
C2446       C  0.82721172  0.45919161  0.11732870    -0.10200
C2447       C  0.80918258  0.50568683  0.06810387     0.06300
H2448       H  0.81778910  0.46115385  0.04649821     0.08200
H2449       H  0.83005574  0.42249319  0.06624963     0.11700
H2450       H  0.82976846  0.45894616  0.13714810     0.12000
H2451       H  0.81725655  0.49755358  0.11733491     0.08300
C2452       C  0.78892091  0.51942504  0.07693134    -0.10900
C2453       C  0.77922218  0.53890461  0.06292859    -0.10200
C2454       C  0.78983502  0.54502798  0.04010022    -0.01100
C2455       C  0.81121480  0.53257634  0.03227947    -0.11300
C2456       C  0.82081475  0.51312058  0.04614723    -0.09700
H2457       H  0.77955963  0.51402380  0.09376009     0.08300
H2458       H  0.76238312  0.54791605  0.06898447     0.12000
H2459       H  0.81943286  0.53680587  0.01453950     0.11700
H2460       H  0.83666957  0.50310386  0.03912326     0.08200
C2461       C  0.77064544  0.42373086  0.22447881    -0.10900
C2462       C  0.74800960  0.41076580  0.22434904     0.06300
C2463       C  0.74734917  0.38679203  0.21449681    -0.09600
C2464       C  0.76893300  0.37610438  0.20480204    -0.11300
C2465       C  0.79147898  0.38936936  0.20439941    -0.01100
C2466       C  0.79205765  0.41323654  0.21454798    -0.10200
C2467       C  0.72528111  0.42302402  0.23374912     0.06300
H2468       H  0.73014637  0.37640925  0.21421895     0.08200
H2469       H  0.76778681  0.35773494  0.19697557     0.11700
H2470       H  0.80898917  0.42405279  0.21441645     0.12000
H2471       H  0.77162013  0.44238234  0.23165105     0.08300
C2472       C  0.72623904  0.43606012  0.25609962    -0.10900
C2473       C  0.70693104  0.45170246  0.26288319    -0.10200
C2474       C  0.68632940  0.45503601  0.24730025    -0.01100
C2475       C  0.68422727  0.44029879  0.22603112    -0.11300
C2476       C  0.70357880  0.42431214  0.21933169    -0.09700
H2477       H  0.74251853  0.43503682  0.26778142     0.08300
H2478       H  0.70881631  0.46244056  0.27966362     0.12000
H2479       H  0.66858145  0.44249599  0.21369324     0.11700
H2480       H  0.70237039  0.41437382  0.20201992     0.08200
C2481       C  0.89152590  0.70063862  0.24102076    -0.10900
C2482       C  0.90960152  0.71932224  0.24257413     0.06300
C2483       C  0.91540848  0.72909350  0.26600824    -0.09600
C2484       C  0.90431986  0.71960998  0.28739594    -0.11300
C2485       C  0.88719984  0.70005842  0.28590478    -0.01100
C2486       C  0.88048237  0.69113836  0.26237794    -0.10200
C2487       C  0.92390930  0.72715675  0.22030456     0.06300
H2488       H  0.92946654  0.74327787  0.26798808     0.08200
H2489       H  0.90997999  0.72687816  0.30515959     0.11700
H2490       H  0.86717853  0.67623336  0.26045608     0.12000
H2491       H  0.88629231  0.69296274  0.22329934     0.08300
C2492       C  0.93193328  0.70958813  0.20284913    -0.10900
C2493       C  0.94893973  0.71609720  0.18437814    -0.10200
C2494       C  0.95827441  0.74024291  0.18305514    -0.01100
C2495       C  0.94889766  0.75819379  0.19925427    -0.11300
C2496       C  0.93180750  0.75176587  0.21758412    -0.09700
H2497       H  0.92644058  0.69042421  0.20447406     0.08300
H2498       H  0.95624834  0.70187216  0.17237924     0.12000
H2499       H  0.95596743  0.77692422  0.19863084     0.11700
H2500       H  0.92563266  0.76586179  0.23033468     0.08200
C2501       C  0.93155363  0.67777270  0.47428771    -0.10900
C2502       C  0.92714307  0.70218083  0.48209833     0.06300
C2503       C  0.91259326  0.71739786  0.46672871    -0.09600
C2504       C  0.90358492  0.70882934  0.44399893    -0.11300
C2505       C  0.90830365  0.68459194  0.43618876    -0.01100
C2506       C  0.92206378  0.66905379  0.45179130    -0.10200
C2507       C  0.93905083  0.71225442  0.50513086     0.06300
H2508       H  0.90801629  0.73603585  0.47221108     0.08200
H2509       H  0.89247211  0.72105839  0.43274827     0.11700
H2510       H  0.92584205  0.65017577  0.44641958     0.12000
H2511       H  0.94290565  0.66548391  0.48518464     0.08300
C2512       C  0.94490098  0.69704626  0.52551083    -0.10900
C2513       C  0.95898478  0.70620647  0.54546648    -0.10200
C2514       C  0.96727131  0.73080285  0.54556071    -0.01100
C2515       C  0.95982769  0.74634364  0.52618092    -0.11300
C2516       C  0.94625086  0.73721265  0.50621528    -0.09700
H2517       H  0.93926476  0.67786243  0.52576314     0.08300
H2518       H  0.96458861  0.69375536  0.56003797     0.12000
H2519       H  0.96598011  0.76540152  0.52570691     0.11700
H2520       H  0.94270259  0.74960120  0.49099938     0.08200
C2521       C  0.01446710  0.57964920  0.28038675    -0.10900
C2522       C  0.00299896  0.57247471  0.30262112     0.06300
C2523       C  0.01389783  0.55331830  0.31638722    -0.09600
C2524       C  0.03473096  0.54082225  0.30757902    -0.11300
C2525       C  0.04523554  0.54702518  0.28475029    -0.01100
C2526       C  0.03531113  0.56694322  0.27148702    -0.10200
C2527       C  0.97916220  0.58378266  0.31107912     0.06300
H2528       H  0.00543555  0.54684872  0.33329866     0.08200
H2529       H  0.04141560  0.52490018  0.31763059     0.11700
H2530       H  0.04259082  0.57150531  0.25343122     0.12000
H2531       H  0.00682116  0.59448773  0.26943847     0.08300
C2532       C  0.97459769  0.58690048  0.33640351    -0.10900
C2533       C  0.95182338  0.59572563  0.34478745    -0.10200
C2534       C  0.93279057  0.60196803  0.32816431    -0.01100
C2535       C  0.93732321  0.59928333  0.30273516    -0.11300
C2536       C  0.96026462  0.59028663  0.29428338    -0.09700
H2537       H  0.98873895  0.58260482  0.34990640     0.08300
H2538       H  0.94922619  0.59775848  0.36449621     0.12000
H2539       H  0.92321411  0.60419259  0.28940033     0.11700
H2540       H  0.96297323  0.58791197  0.27463525     0.08200
C2541       C  0.79779559  0.55116753  0.43519208    -0.10900
C2542       C  0.81298683  0.53007226  0.43448046     0.06300
C2543       C  0.83738936  0.53259505  0.42572673    -0.09600
C2544       C  0.84600122  0.55537092  0.41694853    -0.11300
C2545       C  0.83041163  0.57619034  0.41666384    -0.01100
C2546       C  0.80635319  0.57389456  0.42631949    -0.10200
C2547       C  0.80315809  0.50566519  0.44277047     0.06300
H2548       H  0.84959305  0.51679128  0.42491539     0.08200
H2549       H  0.86466415  0.55643898  0.40963966     0.11700
H2550       H  0.79393822  0.58955866  0.42661223     0.12000
H2551       H  0.77914150  0.55009522  0.44251290     0.08300
C2552       C  0.81783436  0.48933971  0.45672656    -0.10900
C2553       C  0.80728972  0.46815008  0.46736497    -0.10200
C2554       C  0.78197731  0.46291171  0.46413327    -0.01100
C2555       C  0.76788210  0.47806445  0.44855235    -0.11300
C2556       C  0.77835539  0.49912523  0.43791786    -0.09700
H2557       H  0.83699224  0.49378831  0.46084085     0.08300
H2558       H  0.81834639  0.45705022  0.47978687     0.12000
H2559       H  0.74822463  0.47458101  0.44612491     0.11700
H2560       H  0.76669612  0.51087415  0.42671256     0.08200
C2561       C  0.80026630  0.76899540  0.39895047    -0.10900
C2562       C  0.78408979  0.76624344  0.41907695     0.06300
C2563       C  0.77798847  0.74217825  0.42691558    -0.09600
C2564       C  0.78842715  0.72146957  0.41545084    -0.11300
C2565       C  0.80533988  0.72430480  0.39594582    -0.01100
C2566       C  0.81075923  0.74832239  0.38755823    -0.10200
C2567       C  0.77474910  0.78824621  0.43280976     0.06300
H2568       H  0.76588835  0.73932668  0.44259628     0.08200
H2569       H  0.78399489  0.70329467  0.42250826     0.11700
H2570       H  0.82359345  0.75122161  0.37246558     0.12000
H2571       H  0.80508166  0.78718275  0.39218395     0.08300
C2572       C  0.79044647  0.80855297  0.43773778    -0.10900
C2573       C  0.78282242  0.82757805  0.45357143    -0.10200
C2574       C  0.75940400  0.82663289  0.46477978    -0.01100
C2575       C  0.74313431  0.80725617  0.45859199    -0.11300
C2576       C  0.75066894  0.78833882  0.44274106    -0.09700
H2577       H  0.80919547  0.80900438  0.43060765     0.08300
H2578       H  0.79585566  0.84204019  0.45847147     0.12000
H2579       H  0.72503218  0.80605585  0.46718956     0.11700
H2580       H  0.73792876  0.77330270  0.43897163     0.08200
C2581       C  0.71590347  0.57007696  0.25990061    -0.10900
C2582       C  0.71783368  0.57622351  0.28504664     0.06300
C2583       C  0.69976217  0.56699579  0.30144294    -0.09600
C2584       C  0.68134991  0.55060626  0.29317125    -0.11300
C2585       C  0.68065112  0.54317632  0.26838565    -0.01100
C2586       C  0.69758264  0.55364501  0.25169485    -0.10200
C2587       C  0.73968972  0.59039237  0.29446503     0.06300
H2588       H  0.70081122  0.57113624  0.32096516     0.08200
H2589       H  0.66887361  0.54228261  0.30645490     0.11700
H2590       H  0.69756887  0.54787266  0.23254828     0.12000
H2591       H  0.72920802  0.57718127  0.24672045     0.08300
C2592       C  0.76369856  0.58561771  0.28538510    -0.10900
C2593       C  0.78454776  0.59732903  0.29564472    -0.10200
C2594       C  0.78190783  0.61404753  0.31529350    -0.01100
C2595       C  0.75781891  0.61936068  0.32384066    -0.11300
C2596       C  0.73702023  0.60770041  0.31357747    -0.09700
H2597       H  0.76649408  0.57211110  0.27092318     0.08300
H2598       H  0.80277918  0.59269560  0.28870378     0.12000
H2599       H  0.75500515  0.63228635  0.33882728     0.11700
H2600       H  0.71882688  0.61206274  0.32079212     0.08200
C2601       C  0.53740404  0.58100277  0.67275607    -0.10900
C2602       C  0.53505688  0.57426145  0.69766605     0.06300
C2603       C  0.55598324  0.57657110  0.71312704    -0.09600
C2604       C  0.57855758  0.58562271  0.70391650    -0.11300
C2605       C  0.58076380  0.59247577  0.67899563    -0.01100
C2606       C  0.55991025  0.58990335  0.66355468    -0.10200
C2607       C  0.51107217  0.56426643  0.70721159     0.06300
H2608       H  0.55502215  0.57113396  0.73232269     0.08200
H2609       H  0.59418338  0.58746055  0.71635577     0.11700
H2610       H  0.56078855  0.59518397  0.64430601     0.12000
H2611       H  0.52168614  0.57980832  0.66037129     0.08300
C2612       C  0.50312283  0.56952742  0.73138319    -0.10900
C2613       C  0.48199864  0.55800549  0.74109376    -0.10200
C2614       C  0.46821436  0.54126658  0.72676904    -0.01100
C2615       C  0.47520357  0.53707455  0.70222724    -0.11300
C2616       C  0.49640406  0.54843998  0.69253340    -0.09700
H2617       H  0.51367674  0.58191629  0.74307450     0.08300
H2618       H  0.47731588  0.56091096  0.76032009     0.12000
H2619       H  0.46537728  0.52351907  0.69119283     0.11700
H2620       H  0.50209016  0.54362450  0.67399079     0.08200
C2621       C  0.73210967  0.74244396  0.58937656    -0.10900
C2622       C  0.72396086  0.76541764  0.59841353     0.06300
C2623       C  0.70739699  0.76579962  0.61834663    -0.09600
C2624       C  0.69819641  0.74378098  0.62820191    -0.11300
C2625       C  0.70519230  0.72079445  0.61826704    -0.01100
C2626       C  0.72281423  0.72034608  0.59919303    -0.10200
C2627       C  0.73097162  0.78868240  0.58559910     0.06300
H2628       H  0.70105535  0.78317942  0.62589844     0.08200
H2629       H  0.68486298  0.74484161  0.64310113     0.11700
H2630       H  0.72854045  0.70300528  0.59108530     0.12000
H2631       H  0.74470829  0.74155650  0.57384712     0.08300
C2632       C  0.75530695  0.79234087  0.57711494    -0.10900
C2633       C  0.76083931  0.81194159  0.56128299    -0.10200
C2634       C  0.74217376  0.82826366  0.55359946    -0.01100
C2635       C  0.71829743  0.82584559  0.56357660    -0.11300
C2636       C  0.71274425  0.80623342  0.57951169    -0.09700
H2637       H  0.76977939  0.77933648  0.58175748     0.08300
H2638       H  0.77932253  0.81333495  0.55355861     0.12000
H2639       H  0.70350905  0.83786470  0.55746768     0.11700
H2640       H  0.69376403  0.80378744  0.58560026     0.08200
C2641       C  0.67279693  0.53095741  0.57393500    -0.10900
C2642       C  0.69822867  0.52610985  0.57089290     0.06300
C2643       C  0.71536708  0.54476661  0.57717377    -0.09600
C2644       C  0.70734804  0.56748593  0.58654967    -0.11300
C2645       C  0.68194791  0.57220641  0.58995378    -0.01100
C2646       C  0.66476950  0.55366114  0.58339934    -0.10200
C2647       C  0.70695301  0.50213395  0.56040215     0.06300
H2648       H  0.73506402  0.54192211  0.57459263     0.08200
H2649       H  0.72112663  0.58122291  0.59149866     0.11700
H2650       H  0.64506403  0.55653235  0.58591472     0.12000
H2651       H  0.65907926  0.51702115  0.56940722     0.08300
C2652       C  0.69435131  0.49100252  0.54050721    -0.10900
C2653       C  0.70452281  0.47061284  0.52829309    -0.10200
C2654       C  0.72733018  0.46074894  0.53586264    -0.01100
C2655       C  0.73910750  0.47069879  0.55671969    -0.11300
C2656       C  0.72898474  0.49112124  0.56893878    -0.09700
H2657       H  0.67750327  0.49906261  0.53326567     0.08300
H2658       H  0.69555215  0.46370870  0.51176390     0.12000
H2659       H  0.75705115  0.46380357  0.56244678     0.11700
H2660       H  0.73895736  0.49893273  0.58445401     0.08200
C2661       C  0.75264633  0.58457004  0.72341055    -0.04500
C2662       C  0.77570853  0.58716231  0.71142613     0.06300
C2663       C  0.77691805  0.60165734  0.69001706    -0.09600
C2664       C  0.75557392  0.61265610  0.68040157    -0.11300
C2665       C  0.73231066  0.60940503  0.69183858    -0.01100
C2666       C  0.73118846  0.59552547  0.71370899    -0.10200
C2667       C  0.79801071  0.57355234  0.72031665     0.06300
H2668       H  0.79439045  0.60430854  0.68051310     0.08200
H2669       H  0.75728755  0.62332795  0.66361070     0.11700
H2670       H  0.71364639  0.59261824  0.72300425     0.12000
H2671       H  0.75099580  0.57329196  0.73980441     0.08300
C2672       C  0.80280377  0.57103468  0.74569644    -0.10900
C2673       C  0.82173576  0.55550311  0.75402189    -0.10200
C2674       C  0.83637588  0.54232744  0.73716778    -0.01100
C2675       C  0.83266517  0.54590103  0.71182294    -0.11300
C2676       C  0.81371270  0.56142428  0.70345633    -0.09700
H2677       H  0.79129793  0.58035109  0.75914257     0.08300
H2678       H  0.82396403  0.55254271  0.77366048     0.12000
H2679       H  0.84323119  0.53530824  0.69854160     0.11700
H2680       H  0.81036717  0.56268625  0.68380014     0.08200
C2681       C  0.56470099  0.74400575  0.51080475    -0.10900
C2682       C  0.57048648  0.71868821  0.51073625     0.06300
C2683       C  0.56456438  0.70490870  0.48933394    -0.09600
C2684       C  0.55168393  0.71570717  0.46951601    -0.11300
C2685       C  0.54456868  0.74058192  0.47050819    -0.01100
C2686       C  0.55220051  0.75478308  0.49094937    -0.10200
C2687       C  0.58144124  0.70667280  0.53329060     0.06300
H2688       H  0.56928789  0.68556963  0.48808756     0.08200
H2689       H  0.54605476  0.70425005  0.45408559     0.11700
H2690       H  0.54721651  0.77408899  0.49220290     0.12000
H2691       H  0.56859946  0.75542823  0.52674350     0.08300
C2692       C  0.59673468  0.72007340  0.54973235    -0.10900
C2693       C  0.60607593  0.70914611  0.57126879    -0.10200
C2694       C  0.60088853  0.68433289  0.57683625    -0.01100
C2695       C  0.58577515  0.67083377  0.56047052    -0.11300
C2696       C  0.57599109  0.68189384  0.53918244    -0.09700
H2697       H  0.60191550  0.73897002  0.54585839     0.08300
H2698       H  0.61801291  0.71997852  0.58322980     0.12000
H2699       H  0.58138784  0.65168692  0.56420096     0.11700
H2700       H  0.56385336  0.67098416  0.52753667     0.08200
C2701       C  0.59322369  0.72027275  0.74282628    -0.10900
C2702       C  0.59715954  0.70990313  0.76635813     0.06300
C2703       C  0.61435522  0.69059341  0.76853239    -0.09600
C2704       C  0.62647568  0.68124417  0.74769349    -0.11300
C2705       C  0.62177751  0.69093464  0.72403161    -0.01100
C2706       C  0.60540227  0.71094042  0.72195580    -0.10200
C2707       C  0.58232336  0.71826537  0.78813822     0.06300
H2708       H  0.61824075  0.68244121  0.78635030     0.08200
H2709       H  0.63911467  0.66595334  0.75009551     0.11700
H2710       H  0.60127962  0.71883193  0.70407004     0.12000
H2711       H  0.57991944  0.73496229  0.74031327     0.08300
C2712       C  0.57336345  0.70113893  0.80562775    -0.10900
C2713       C  0.55698972  0.70852972  0.82434028    -0.10200
C2714       C  0.54918816  0.73313749  0.82589947    -0.01100
C2715       C  0.55903751  0.75046635  0.80928577    -0.11300
C2716       C  0.57552326  0.74317045  0.79074767    -0.09700
H2717       H  0.57790172  0.68176406  0.80407436     0.08300
H2718       H  0.54922675  0.69476215  0.83662087     0.12000
H2719       H  0.55309401  0.76952335  0.81003877     0.11700
H2720       H  0.58238544  0.75696549  0.77799763     0.08200
loop_ 
_geom_bond_atom_site_label_1 
_geom_bond_atom_site_label_2 
_geom_bond_distance 
_geom_bond_site_symmetry_2 
_ccdc_geom_bond_type 
O1           C17   1.282       .  A
O1           Zn7   2.061       .  S
C2           O18   1.276       .  A
C2           O15   1.282       .  A
C2         C2625   1.486       .  S
O3           C16   1.277       .  A
O3          Cd10   2.080       .  S
O4           C22   1.281       .  A
O4          Cd13   2.100       .  S
O5           C19   1.283       .  A
O5           Cd9   2.112       .  S
O6           C17   1.277       .  A
O6           Cd9   2.069       .  S
Zn7          O18   2.004       .  S
Zn7          O20   2.057       .  S
Zn7          O12   1.923       .  S
O8           C19   1.276       .  A
O8          Cd13   2.064       .  S
Cd9          O11   2.100       .  S
Cd9          O12   1.990       .  S
Cd10         O14   2.057       .  S
Cd10         O23   2.071       .  S
Cd10         O12   1.972       .  S
O11          C21   1.281       .  A
O12         Cd13   1.981       .  S
Cd13         O15   2.101       .  S
O14          C21   1.276       .  A
C16          O20   1.280       .  A
C16        C2694   1.492       .  S
C17        C2705   1.491       .  S
C19        C2665   1.492       .  S
C21        C2605   1.487       .  S
C22          O23   1.277       .  A
C22        C2645   1.491       .  S
O24          C40   1.284       .  A
O24         Zn30   2.069       .  S
C25          O41   1.277       .  A
C25          O38   1.283       .  A
C25        C2485   1.489       .  S
O26          C39   1.274       .  A
O26         Cd33   2.046       .  S
O27          C45   1.282       .  A
O27         Cd36   2.107       .  S
O28          C42   1.282       .  A
O28         Cd32   2.104       .  S
O29          C40   1.277       .  A
O29         Cd32   2.063       .  S
Zn30         O41   2.016       .  S
Zn30         O43   2.076       .  S
Zn30         O35   1.932       .  S
O31          C42   1.276       .  A
O31         Cd36   2.065       .  S
Cd32         O34   2.101       .  S
Cd32         O35   1.978       .  S
Cd33         O37   2.056       .  S
Cd33         O46   2.059       .  S
Cd33         O35   1.961       .  S
O34          C44   1.281       .  A
O35         Cd36   1.979       .  S
Cd36         O38   2.105       .  S
O37          C44   1.274       .  A
C39          O43   1.282       .  A
C39        C2534   1.491       .  S
C40        C2594   1.490       .  S
C42        C2565   1.488       .  S
C44        C2545   1.487       .  S
C45          O46   1.274       .  A
C45        C2505   1.488       .  S
O47          C63   1.281       .  A
O47         Zn53   2.055       .  S
C48          O64   1.275       .  A
C48          O61   1.281       .  A
C48        C2445   1.484       .  S
O49          C62   1.276       .  A
O49         Cd56   2.071       .  S
O50          C68   1.281       .  A
O50         Cd59   2.104       .  S
O51          C65   1.282       .  A
O51         Cd55   2.106       .  S
O52          C63   1.276       .  A
O52         Cd55   2.068       .  S
Zn53         O64   2.011       .  S
Zn53         O66   2.039       .  S
Zn53         O58   1.929       .  S
O54          C65   1.276       .  A
O54         Cd59   2.067       .  S
Cd55         O57   2.103       .  S
Cd55         O58   1.985       .  S
Cd56         O60   2.065       .  S
Cd56         O69   2.066       .  S
Cd56         O58   1.969       .  S
O57          C67   1.282       .  A
O58         Cd59   1.986       .  S
Cd59         O61   2.097       .  S
O60          C67   1.276       .  A
C62          O66   1.279       .  A
C62        C2465   1.487       .  S
C63        C2414   1.489       .  S
C65        C2374   1.491       .  S
C67        C2385   1.489       .  S
C68          O69   1.276       .  A
C68        C2434   1.488       .  S
C70         C554   1.489       .  S
C70          C71   1.416   1_554  A
C70          C75   1.413       .  A
C71          C72   1.409       .  A
C71          H76   1.083       .  S
C72        C2354   1.484       .  S
C72          C73   1.397   1_556  A
C73          C74   1.396       .  A
C73          H77   1.085       .  S
C74        C2454   1.476       .  S
C74          C75   1.405       .  A
C75          H78   1.084       .  S
C79        C2525   1.479       .  S
C79          C80   1.409       .  A
C79          C84   1.392       .  A
C80          C81   1.418       .  A
C80          H85   1.083       .  S
C81         C731   1.498       .  S
C81          C82   1.418       .  A
C82          C83   1.410       .  A
C82          H86   1.083       .  S
C83        C2405   1.485       .  S
C83          C84   1.395       .  A
C84          H87   1.086       .  S
O88         C104   1.283       .  A
O88         Zn94   2.068       .  S
C89         O105   1.277       .  A
C89         O102   1.281       .  A
C89        C2254   1.490       .  S
O90         C103   1.276       .  A
O90         Cd97   2.064       .  S
O91         C109   1.281       .  A
O91        Cd100   2.100       .  S
O92         C106   1.282       .  A
O92         Cd96   2.101       .  S
O93         C104   1.277       .  A
O93         Cd96   2.069       .  S
Zn94        O105   2.023       .  S
Zn94        O107   2.057       .  S
Zn94         O99   1.926       .  S
O95         C106   1.276       .  A
O95        Cd100   2.063       .  S
Cd96         O98   2.095       .  S
Cd96         O99   1.984       .  S
Cd97        O101   2.055       .  S
Cd97        O110   2.073       .  S
Cd97         O99   1.964       .  S
O98         C108   1.279       .  A
O99        Cd100   1.980       .  S
Cd100       O102   2.096       .  S
O101        C108   1.275       .  A
C103        O107   1.281       .  A
C103       C2274   1.489       .  S
C104       C2325   1.492       .  S
C106       C2285   1.485       .  S
C108       C2305   1.485       .  S
C109        O110   1.277       .  A
C109       C2345   1.490       .  S
O111        C127   1.283       .  A
O111       Zn117   2.063       .  S
C112        O128   1.275       .  A
C112        O125   1.283       .  A
C112       C2205   1.491       .  S
O113        C126   1.274       .  A
O113       Cd120   2.058       .  S
O114        C132   1.281       .  A
O114       Cd123   2.100       .  S
O115        C129   1.282       .  A
O115       Cd119   2.106       .  S
O116        C127   1.277       .  A
O116       Cd119   2.066       .  S
Zn117       O128   2.013       .  S
Zn117       O130   2.046       .  S
Zn117       O122   1.926       .  S
O118        C129   1.277       .  A
O118       Cd123   2.069       .  S
Cd119       O121   2.106       .  S
Cd119       O122   1.985       .  S
Cd120       O124   2.054       .  S
Cd120       O133   2.062       .  S
Cd120       O122   1.964       .  S
O121        C131   1.281       .  A
O122       Cd123   1.985       .  S
Cd123       O125   2.110       .  S
O124        C131   1.274       .  A
C126        O130   1.280       .  A
C126       C2225   1.484       .  S
C127       C2165   1.490       .  S
C129       C2125   1.487       .  S
C131       C2154   1.485       .  S
C132        O133   1.275       .  A
C132       C2194   1.487       .  S
C134       C2174   1.481       .  S
C134        C135   1.409       .  A
C134        C139   1.395       .  A
C135        C136   1.417       .  A
C135        H140   1.083       .  S
C136        C756   1.499       .  S
C136        C137   1.419       .  A
C137        C138   1.410       .  A
C137        H141   1.083       .  S
C138       C2265   1.480       .  S
C138        C139   1.393       .  A
C139        H142   1.086       .  S
C143       C2334   1.490       .  S
C143        C144   1.411       .  A
C143        C148   1.398       .  A
C144        C145   1.417       .  A
C144        H149   1.083       .  S
C145        C447   1.494       .  S
C145        C146   1.414       .  A
C146        C147   1.406       .  A
C146        H150   1.083       .  S
C147       C2234   1.477       .  S
C147        C148   1.396       .  A
C148        H151   1.085       .  S
C152        C588   1.491   1_545  S
C152        C153   1.415   1_545  A
C152        C157   1.415       .  A
C153        C154   1.410       .  A
C153        H158   1.083       .  S
C154       C2105   1.488       .  S
C154        C155   1.399   1_565  A
C155        C156   1.395       .  A
C155        H159   1.085       .  S
C156       C2214   1.481       .  S
C156        C157   1.408       .  A
C157        H160   1.083       .  S
C161       C2065   1.479       .  S
C161        C162   1.407       .  A
C161        C166   1.394   1_565  A
C162        C163   1.416   1_565  A
C162        H167   1.083       .  S
C163        C702   1.496       .  S
C163        C164   1.417       .  A
C164        C165   1.410       .  A
C164        H168   1.083       .  S
C165       C2085   1.482       .  S
C165        C166   1.397       .  A
C166        H169   1.086       .  S
C170       C2145   1.482       .  S
C170        C171   1.395   1_556  A
C170        C175   1.406       .  A
C171        C172   1.395       .  A
C171        H176   1.085       .  S
C172       C2045   1.481       .  S
C172        C173   1.409       .  A
C173        C174   1.418       .  A
C173        H177   1.083       .  S
C174        C738   1.499       .  S
C174        C175   1.417   1_554  A
C175        H178   1.083       .  S
C179        C711   1.488       .  S
C179        C180   1.416   1_554  A
C179        C184   1.413       .  A
C180        C181   1.409       .  A
C180        H185   1.083       .  S
C181       C2134   1.478       .  S
C181        C182   1.394   1_556  A
C182        C183   1.396       .  A
C182        H186   1.086       .  S
C183       C2025   1.478       .  S
C183        C184   1.405       .  A
C184        H187   1.084       .  S
C188       C1985   1.482       .  S
C188        C189   1.406       .  A
C188        C193   1.394       .  A
C189        C190   1.417       .  A
C189        H194   1.083       .  S
C190        C747   1.500       .  S
C190        C191   1.419   1_565  A
C191        C192   1.411       .  A
C191        H195   1.083       .  S
C192       C2014   1.488       .  S
C192        C193   1.397   1_545  A
C193        H196   1.085       .  S
C197        C684   1.492       .  S
C197        C198   1.416   1_455  A
C197        C202   1.416       .  A
C198        C199   1.409       .  A
C198        H203   1.083       .  S
C199       C2365   1.484       .  S
C199        C200   1.397   1_655  A
C200        C201   1.395       .  A
C200        H204   1.085       .  S
C201       C1974   1.482       .  S
C201        C202   1.408       .  A
C202        H205   1.083       .  S
C206       C2394   1.489       .  S
C206        C207   1.398   1_655  A
C206        C211   1.411       .  A
C207        C208   1.395       .  A
C207        H212   1.085       .  S
C208       C1945   1.483       .  S
C208        C209   1.406       .  A
C209        C210   1.417       .  A
C209        H213   1.083       .  S
C210        C675   1.497       .  S
C210        C211   1.420   1_455  A
C211        H214   1.083       .  S
O215        C231   1.283       .  A
O215       Zn221   2.067       .  S
C216        O232   1.276       .  A
C216        O229   1.280       .  A
C216       C2034   1.485       .  S
O217        C230   1.276       .  A
O217       Cd224   2.067       .  S
O218        C236   1.279       .  A
O218       Cd227   2.085       .  S
O219        C233   1.282       .  A
O219       Cd223   2.107       .  S
O220        C231   1.276       .  A
O220       Cd223   2.062       .  S
Zn221       O232   2.016       .  S
Zn221       O234   2.063       .  S
Zn221       O226   1.932       .  S
O222        C233   1.276       .  A
O222       Cd227   2.069       .  S
Cd223       O225   2.096       .  S
Cd223       O226   1.982       .  S
Cd224       O228   2.073       .  S
Cd224       O237   2.072       .  S
Cd224       O226   1.963       .  S
O225        C235   1.281       .  A
O226       Cd227   1.981       .  S
Cd227       O229   2.088       .  S
O228        C235   1.277       .  A
C230        O234   1.282       .  A
C230       C2005   1.490       .  S
C231       C2094   1.490       .  S
C233       C1965   1.491       .  S
C235       C1954   1.487       .  S
C236        O237   1.277       .  A
C236       C2054   1.485       .  S
O238        C254   1.284       .  A
O238       Zn244   2.081       .  S
C239        O255   1.277       .  A
C239        O252   1.281       .  A
C239       C2114   1.490       .  S
O240        C253   1.276       .  A
O240       Cd247   2.067       .  S
O241        C259   1.280       .  A
O241       Cd250   2.097       .  S
O242        C256   1.282       .  A
O242       Cd246   2.096       .  S
O243        C254   1.275       .  A
O243       Cd246   2.064       .  S
Zn244       O255   2.026       .  S
Zn244       O257   2.057       .  S
Zn244       O249   1.933       .  S
O245        C256   1.276       .  A
O245       Cd250   2.069       .  S
Cd246       O248   2.099       .  S
Cd246       O249   1.986       .  S
Cd247       O251   2.062       .  S
Cd247       O260   2.079       .  S
Cd247       O249   1.972       .  S
O248        C258   1.280       .  A
O249       Cd250   1.988       .  S
Cd250       O252   2.095       .  S
O251        C258   1.275       .  A
C253        O257   1.282       .  A
C253       C1905   1.486       .  S
C254       C1894   1.492       .  S
C256       C1865   1.488       .  S
C258       C1925   1.485       .  S
C259        O260   1.277       .  A
C259       C1845   1.487       .  S
O261        C277   1.283       .  A
O261       Zn267   2.064       .  S
C262        O278   1.277       .  A
C262        O275   1.280       .  A
C262       C1825   1.486       .  S
O263        C276   1.276       .  A
O263       Cd270   2.063       .  S
O264        C282   1.279       .  A
O264       Cd273   2.087       .  S
O265        C279   1.282       .  A
O265       Cd269   2.106       .  S
O266        C277   1.276       .  A
O266       Cd269   2.055       .  S
Zn267       O278   2.022       .  S
Zn267       O280   2.061       .  S
Zn267       O272   1.931       .  S
O268        C279   1.276       .  A
O268       Cd273   2.064       .  S
Cd269       O271   2.102       .  S
Cd269       O272   1.978       .  S
Cd270       O274   2.067       .  S
Cd270       O283   2.069       .  S
Cd270       O272   1.967       .  S
O271        C281   1.281       .  A
O272       Cd273   1.974       .  S
Cd273       O275   2.089       .  S
O274        C281   1.276       .  A
C276        O280   1.281       .  A
C276       C1785   1.491       .  S
C277       C1805   1.487       .  S
C279       C1994   1.490       .  S
C281       C2074   1.490       .  S
C282        O283   1.276       .  A
C282       C1765   1.487       .  S
C284        C639   1.501       .  S
C284        C285   1.422   1_455  A
C284        C289   1.418       .  A
C285        C286   1.414       .  A
C285        H290   1.083       .  S
C286       C2514   1.492       .  S
C286        C287   1.397   1_655  A
C287        C288   1.392       .  A
C287        H291   1.086       .  S
C288       C1794   1.480       .  S
C288        C289   1.407       .  A
C289        H292   1.083       .  S
C293        C765   1.490       .  S
C293        C294   1.415       .  A
C293        C298   1.412       .  A
C294        C295   1.410       .  A
C294        H299   1.083       .  S
C295       C1874   1.485       .  S
C295        C296   1.400       .  A
C296        C297   1.395       .  A
C296        H300   1.085       .  S
C297       C1774   1.475       .  S
C297        C298   1.403       .  A
C298        H301   1.084       .  S
C302       C1934   1.481       .  S
C302        C303   1.396       .  A
C302        C307   1.408       .  A
C303        C304   1.396       .  A
C303        H308   1.085       .  S
C304       C1834   1.484       .  S
C304        C305   1.408       .  A
C305        C306   1.416       .  A
C305        H309   1.083       .  S
C306        C524   1.496       .  S
C306        C307   1.417       .  A
C307        H310   1.083       .  S
C311        C774   1.494       .  S
C311        C312   1.413       .  A
C311        C316   1.416   1_455  A
C312        C313   1.407       .  A
C312        H317   1.083       .  S
C313       C1814   1.477       .  S
C313        C314   1.396       .  A
C314        C315   1.397   1_455  A
C314        H318   1.085       .  S
C315       C2494   1.482       .  S
C315        C316   1.407       .  A
C316        H319   1.083       .  S
C320        C796   1.498       .  S
C320        C321   1.418   1_545  A
C320        C325   1.418       .  A
C321        C322   1.408       .  A
C321        H326   1.083       .  S
C322       C1854   1.485       .  S
C322        C323   1.395   1_565  A
C323        C324   1.397       .  A
C323        H327   1.085       .  S
C324       C2185   1.484       .  S
C324        C325   1.409       .  A
C325        H328   1.083       .  S
C329        C783   1.495       .  S
C329        C330   1.417       .  A
C329        C334   1.415   1_554  A
C330        C331   1.411       .  A
C330        H335   1.083       .  S
C331       C2425   1.485       .  S
C331        C332   1.399       .  A
C332        C333   1.395   1_554  A
C332        H336   1.085       .  S
C333       C2245   1.482       .  S
C333        C334   1.406       .  A
C334        H337   1.084       .  S
C338       C2714   1.483       .  S
C338        C339   1.397       .  A
C338        C343   1.409       .  A
C339        C340   1.397       .  A
C339        H344   1.085       .  S
C340       C1914   1.479       .  S
C340        C341   1.407       .  A
C341        C342   1.415       .  A
C341        H345   1.083       .  S
C342        C492   1.496       .  S
C342        C343   1.416       .  A
C343        H346   1.083       .  S
C347        C697   1.504       .  S
C347        C348   1.421       .  A
C347        C352   1.420       .  A
C348        C349   1.413       .  A
C348        H353   1.083       .  S
C349       C2685   1.495       .  S
C349        C350   1.398       .  A
C350        C351   1.395       .  A
C350        H354   1.085       .  S
C351       C1885   1.485       .  S
C351        C352   1.412       .  A
C352        H355   1.083       .  S
C356        C670   1.494       .  S
C356        C357   1.416       .  A
C356        C361   1.415       .  A
C357        C358   1.408       .  A
C357        H362   1.083       .  S
C358       C2574   1.482       .  S
C358        C359   1.396       .  A
C359        C360   1.396       .  A
C359        H363   1.085       .  S
C360       C2634   1.479       .  S
C360        C361   1.407       .  A
C361        H364   1.083       .  S
C365        C661   1.492       .  S
C365        C366   1.416       .  A
C365        C370   1.415       .  A
C366        C367   1.408       .  A
C366        H371   1.083       .  S
C367       C2614   1.474       .  S
C367        C368   1.393       .  A
C368        C369   1.392       .  A
C368        H372   1.086       .  S
C369       C2314   1.472       .  S
C369        C370   1.403       .  A
C370        H373   1.083       .  S
C374       C2674   1.477       .  S
C374        C375   1.406       .  A
C374        C379   1.395       .  A
C375        C376   1.413       .  A
C375        H380   1.083       .  S
C376        C650   1.488       .  S
C376        C377   1.414       .  A
C377        C378   1.407       .  A
C377        H381   1.083       .  S
C378       C2294   1.482       .  S
C378        C379   1.397       .  A
C379        H382   1.085       .  S
C383        C724   1.495       .  S
C383        C384   1.417       .  A
C383        C388   1.417       .  A
C384        C385   1.408       .  A
C384        H389   1.083       .  S
C385       C2554   1.479       .  S
C385        C386   1.395       .  A
C386        C387   1.393       .  A
C386        H390   1.086       .  S
C387       C2654   1.477       .  S
C387        C388   1.406       .  A
C388        H391   1.083       .  S
C392       C2585   1.480       .  S
C392        C393   1.394       .  A
C392        C397   1.404       .  A
C393        C394   1.400       .  A
C393        H398   1.085       .  S
C394       C2474   1.488       .  S
C394        C395   1.409       .  A
C395        C396   1.416       .  A
C395        H399   1.083       .  S
C396        C481   1.495       .  S
C396        C397   1.415       .  A
C397        H400   1.083       .  S
O401        C417   1.277       .  A
O401       Zn407   2.016       .  S
C402        O418   1.282       .  A
C402        O415   1.276       .  A
C402       C1705   1.487       .  S
O403        C416   1.273       .  A
O403       Cd410   2.040       .  S
O404        C422   1.282       .  A
O404       Cd413   2.115       .  S
O405        C419   1.278       .  A
O405       Cd409   2.068       .  S
O406        C417   1.282       .  A
O406       Cd409   2.104       .  S
Zn407       O418   2.059       .  S
Zn407       O420   2.050       .  S
Zn407       O412   1.926       .  S
O408        C419   1.283       .  A
O408       Cd413   2.106       .  S
Cd409       O411   2.108       .  S
Cd409       O412   1.980       .  S
Cd410       O414   2.052       .  S
Cd410       O423   2.047       .  S
Cd410       O412   1.951       .  S
O411        C421   1.281       .  A
O412       Cd413   1.977       .  S
Cd413       O415   2.056       .  S
O414        C421   1.274       .  A
C416        O420   1.280       .  A
C416       C1745   1.482       .  S
C417       C1665   1.490       .  S
C419       C1725   1.489       .  S
C421       C1685   1.489       .  S
C422        O423   1.274       .  A
C422       C1645   1.490       .  S
O424        C440   1.278       .  A
O424       Zn430   2.033       .  S
C425        O441   1.285       .  A
C425        O438   1.275       .  A
C425       C1545   1.489       .  S
O426        C439   1.275       .  A
O426       Cd433   2.047       .  S
O427        C445   1.281       .  A
O427       Cd436   2.105       .  S
O428        C442   1.277       .  A
O428       Cd432   2.064       .  S
O429        C440   1.282       .  A
O429       Cd432   2.102       .  S
Zn430       O441   2.083       .  S
Zn430       O443   2.079       .  S
Zn430       O435   1.937       .  S
O431        C442   1.284       .  A
O431       Cd436   2.111       .  S
Cd432       O434   2.108       .  S
Cd432       O435   1.981       .  S
Cd433       O437   2.061       .  S
Cd433       O446   2.054       .  S
Cd433       O435   1.959       .  S
O434        C444   1.281       .  A
O435       Cd436   1.983       .  S
Cd436       O438   2.058       .  S
O437        C444   1.275       .  A
C439        O443   1.284       .  A
C439       C1525   1.490       .  S
C440       C1585   1.493       .  S
C442       C1574   1.490       .  S
C444       C1605   1.492       .  S
C445        O446   1.274       .  A
C445       C1625   1.487       .  S
C447        C448   1.416       .  A
C447        C452   1.416       .  A
C448        C449   1.408       .  A
C448        H453   1.083       .  S
C449       C1505   1.479       .  S
C449        C450   1.396       .  A
C450        C451   1.395       .  A
C450        H454   1.086       .  S
C451       C1614   1.480       .  S
C451        C452   1.408       .  A
C452        H455   1.083       .  S
O456        C472   1.279       .  A
O456       Zn462   2.033       .  S
C457        O473   1.285       .  A
C457        O470   1.276       .  A
C457       C1465   1.493       .  S
O458        C471   1.274       .  A
O458       Cd465   2.050       .  S
O459        C477   1.281       .  A
O459       Cd468   2.102       .  S
O460        C474   1.276       .  A
O460       Cd464   2.062       .  S
O461        C472   1.283       .  A
O461       Cd464   2.103       .  S
Zn462       O473   2.079       .  S
Zn462       O475   2.066       .  S
Zn462       O467   1.926       .  S
O463        C474   1.283       .  A
O463       Cd468   2.107       .  S
Cd464       O466   2.108       .  S
Cd464       O467   1.975       .  S
Cd465       O469   2.059       .  S
Cd465       O478   2.057       .  S
Cd465       O467   1.956       .  S
O466        C476   1.282       .  A
O467       Cd468   1.978       .  S
Cd468       O470   2.062       .  S
O469        C476   1.275       .  A
C471        O475   1.282       .  A
C471       C1425   1.489       .  S
C472       C1485   1.493       .  S
C474       C1445   1.487       .  S
C476       C1514   1.490       .  S
C477        O478   1.275       .  A
C477       C1405   1.488       .  S
C479       C1434   1.477       .  S
C479        C480   1.407       .  A
C479        C484   1.393       .  A
C480        C481   1.417       .  A
C480        H485   1.083       .  S
C481        C482   1.416       .  A
C482        C483   1.405       .  A
C482        H486   1.083       .  S
C483       C1394   1.478       .  S
C483        C484   1.395       .  A
C484        H487   1.086       .  S
C488       C1365   1.484       .  S
C488        C489   1.395       .  A
C488        C493   1.409       .  A
C489        C490   1.393       .  A
C489        H494   1.086       .  S
C490       C1354   1.481       .  S
C490        C491   1.408       .  A
C491        C492   1.418       .  A
C491        H495   1.083       .  S
C492        C493   1.418       .  A
C493        H496   1.083       .  S
O497        C513   1.274       .  A
O497       Zn503   2.009       .  S
C498        O514   1.281       .  A
C498        O511   1.275       .  A
C498       C1385   1.484       .  S
O499        C512   1.278       .  A
O499       Cd506   2.084       .  S
O500        C518   1.280       .  A
O500       Cd509   2.088       .  S
O501        C515   1.277       .  A
O501       Cd505   2.076       .  S
O502        C513   1.282       .  A
O502       Cd505   2.108       .  S
Zn503       O514   2.048       .  S
Zn503       O516   2.038       .  S
Zn503       O508   1.916       .  S
O504        C515   1.280       .  A
O504       Cd509   2.091       .  S
Cd505       O507   2.087       .  S
Cd505       O508   1.980       .  S
Cd506       O510   2.086       .  S
Cd506       O519   2.096       .  S
Cd506       O508   1.980       .  S
O507        C517   1.281       .  A
O508       Cd509   1.974       .  S
Cd509       O511   2.062       .  S
O510        C517   1.279       .  A
C512        O516   1.280       .  A
C512       C1274   1.491       .  S
C513       C1294   1.490       .  S
C515       C1374   1.487       .  S
C517       C1305   1.490       .  S
C518        O519   1.280       .  A
C518       C1325   1.495       .  S
C520       C1414   1.476       .  S
C520        C521   1.393       .  A
C520        C525   1.406       .  A
C521        C522   1.393       .  A
C521        H526   1.086       .  S
C522       C1654   1.477       .  S
C522        C523   1.408       .  A
C523        C524   1.418       .  A
C523        H527   1.083       .  S
C524        C525   1.417       .  A
C525        H528   1.083       .  S
O529        C545   1.276       .  A
O529       Zn535   2.012       .  S
C530        O546   1.283       .  A
C530        O543   1.275       .  A
C530       C1345   1.489       .  S
O531        C544   1.278       .  A
O531       Cd538   2.080       .  S
O532        C550   1.282       .  A
O532       Cd541   2.099       .  S
O533        C547   1.278       .  A
O533       Cd537   2.075       .  S
O534        C545   1.281       .  A
O534       Cd537   2.097       .  S
Zn535       O546   2.071       .  S
Zn535       O548   2.048       .  S
Zn535       O540   1.926       .  S
O536        C547   1.282       .  A
O536       Cd541   2.099       .  S
Cd537       O539   2.098       .  S
Cd537       O540   1.982       .  S
Cd538       O542   2.080       .  S
Cd538       O551   2.076       .  S
Cd538       O540   1.975       .  S
O539        C549   1.280       .  A
O540       Cd541   1.976       .  S
Cd541       O543   2.062       .  S
O542        C549   1.278       .  A
C544        O548   1.280       .  A
C544       C1234   1.490       .  S
C545       C1165   1.487       .  S
C547       C1205   1.490       .  S
C549       C1185   1.488       .  S
C550        O551   1.278       .  A
C550       C1245   1.491       .  S
C552       C1254   1.480       .  S
C552        C553   1.408       .  A
C552        C557   1.397       .  A
C553        C554   1.415       .  A
C553        H558   1.083       .  S
C554        C555   1.412   1_554  A
C555        C556   1.405       .  A
C555        H559   1.084       .  S
C556       C1145   1.478       .  S
C556        C557   1.398   1_556  A
C557        H560   1.085       .  S
O561        C577   1.278       .  A
O561       Zn567   2.024       .  S
C562        O578   1.284       .  A
C562        O575   1.276       .  A
C562       C1125   1.490       .  S
O563        C576   1.275       .  A
O563       Cd570   2.063       .  S
O564        C582   1.281       .  A
O564       Cd573   2.103       .  S
O565        C579   1.275       .  A
O565       Cd569   2.059       .  S
O566        C577   1.281       .  A
O566       Cd569   2.097       .  S
Zn567       O578   2.073       .  S
Zn567       O580   2.063       .  S
Zn567       O572   1.932       .  S
O568        C579   1.281       .  A
O568       Cd573   2.104       .  S
Cd569       O571   2.095       .  S
Cd569       O572   1.987       .  S
Cd570       O574   2.067       .  S
Cd570       O583   2.070       .  S
Cd570       O572   1.972       .  S
O571        C581   1.280       .  A
O572       Cd573   1.991       .  S
Cd573       O575   2.064       .  S
O574        C581   1.276       .  A
C576        O580   1.281       .  A
C576       C1074   1.492       .  S
C577       C1034   1.490       .  S
C579       C1094   1.481       .  S
C581       C1045   1.489       .  S
C582        O583   1.277       .  A
C582       C1105   1.491       .  S
C584       C1005   1.480       .  S
C584        C585   1.394       .  A
C584        C589   1.407       .  A
C585        C586   1.401   1_565  A
C585        H590   1.085       .  S
C586       C1134   1.494       .  S
C586        C587   1.412       .  A
C587        C588   1.416   1_545  A
C587        H591   1.083       .  S
C588        C589   1.415       .  A
C589        H592   1.083       .  S
O593        C609   1.276       .  A
O593       Zn599   2.018       .  S
C594        O610   1.283       .  A
C594        O607   1.275       .  A
C594        C925   1.487       .  S
O595        C608   1.278       .  A
O595       Cd602   2.078       .  S
O596        C614   1.281       .  A
O596       Cd605   2.093       .  S
O597        C611   1.277       .  A
O597       Cd601   2.073       .  S
O598        C609   1.282       .  A
O598       Cd601   2.102       .  S
Zn599       O610   2.064       .  S
Zn599       O612   2.049       .  S
Zn599       O604   1.913       .  S
O600        C611   1.282       .  A
O600       Cd605   2.095       .  S
Cd601       O603   2.089       .  S
Cd601       O604   1.973       .  S
Cd602       O606   2.082       .  S
Cd602       O615   2.083       .  S
Cd602       O604   1.975       .  S
O603        C613   1.281       .  A
O604       Cd605   1.968       .  S
Cd605       O607   2.058       .  S
O606        C613   1.278       .  A
C608        O612   1.281       .  A
C608       C1014   1.491       .  S
C609        C945   1.488       .  S
C611        C965   1.486       .  S
C613       C1154   1.490       .  S
C614        O615   1.278       .  A
C614        C985   1.491       .  S
O616        C632   1.277       .  A
O616       Zn622   2.025       .  S
C617        O633   1.282       .  A
C617        O630   1.276       .  A
C617        C865   1.479       .  S
O618        C631   1.275       .  A
O618       Cd625   2.053       .  S
O619        C637   1.279       .  A
O619       Cd628   2.101       .  S
O620        C634   1.278       .  A
O620       Cd624   2.071       .  S
O621        C632   1.284       .  A
O621       Cd624   2.119       .  S
Zn622       O633   2.058       .  S
Zn622       O635   2.053       .  S
Zn622       O627   1.929       .  S
O623        C634   1.282       .  A
O623       Cd628   2.098       .  S
Cd624       O626   2.108       .  S
Cd624       O627   1.986       .  S
Cd625       O629   2.072       .  S
Cd625       O638   2.066       .  S
Cd625       O627   1.965       .  S
O626        C636   1.282       .  A
O627       Cd628   1.982       .  S
Cd628       O630   2.055       .  S
O629        C636   1.277       .  A
C631        O635   1.281       .  A
C631        C885   1.486       .  S
C632        C905   1.498       .  S
C634        C805   1.485       .  S
C636        C845   1.494       .  S
C637        O638   1.275       .  A
C637        C825   1.491       .  S
C639        C640   1.418   1_455  A
C639        C644   1.420       .  A
C640        C641   1.410       .  A
C640        H645   1.083       .  S
C641        C994   1.483       .  S
C641        C642   1.396   1_655  A
C642        C643   1.398       .  A
C642        H646   1.085       .  S
C643        C914   1.491       .  S
C643        C644   1.412       .  A
C644        H647   1.083       .  S
C648        C894   1.474       .  S
C648        C649   1.407       .  A
C648        C653   1.392       .  A
C649        C650   1.415       .  A
C649        H654   1.083       .  S
C650        C651   1.413       .  A
C651        C652   1.404       .  A
C651        H655   1.083       .  S
C652       C1754   1.471       .  S
C652        C653   1.393       .  A
C653        H656   1.086       .  S
C657       C1714   1.475       .  S
C657        C658   1.393       .  A
C657        C662   1.402       .  A
C658        C659   1.400       .  A
C658        H663   1.085       .  S
C659        C874   1.489       .  S
C659        C660   1.411       .  A
C660        C661   1.416       .  A
C660        H664   1.083       .  S
C661        C662   1.413       .  A
C662        H665   1.084       .  S
C666       C1634   1.476       .  S
C666        C667   1.395       .  A
C666        C671   1.406       .  A
C667        C668   1.395       .  A
C667        H672   1.086       .  S
C668       C1114   1.481       .  S
C668        C669   1.409       .  A
C669        C670   1.417       .  A
C669        H673   1.083       .  S
C670        C671   1.415       .  A
C671        H674   1.083       .  S
C675        C676   1.419       .  A
C675        C680   1.417   1_455  A
C676        C677   1.408       .  A
C676        H681   1.083       .  S
C677       C1694   1.478       .  S
C677        C678   1.393       .  A
C678        C679   1.392   1_455  A
C678        H682   1.086       .  S
C679       C1054   1.476       .  S
C679        C680   1.407       .  A
C680        H683   1.083       .  S
C684        C685   1.416   1_455  A
C684        C689   1.414       .  A
C685        C686   1.410       .  A
C685        H690   1.083       .  S
C686       C1025   1.479       .  S
C686        C687   1.394   1_655  A
C687        C688   1.395       .  A
C687        H691   1.086       .  S
C688       C1674   1.480       .  S
C688        C689   1.408       .  A
C689        H692   1.083       .  S
C693       C1334   1.491       .  S
C693        C694   1.397       .  A
C693        C698   1.414       .  A
C694        C695   1.394       .  A
C694        H699   1.086       .  S
C695       C1225   1.484       .  S
C695        C696   1.410       .  A
C696        C697   1.419       .  A
C696        H700   1.083       .  S
C697        C698   1.421       .  A
C698        H701   1.083       .  S
C702        C703   1.417       .  A
C702        C707   1.417   1_545  A
C703        C704   1.411       .  A
C703        H708   1.083       .  S
C704       C1554   1.494       .  S
C704        C705   1.401   1_545  A
C705        C706   1.397       .  A
C705        H709   1.084       .  S
C706       C1194   1.487       .  S
C706        C707   1.407       .  A
C707        H710   1.084       .  S
C711        C712   1.414   1_554  A
C711        C716   1.414       .  A
C712        C713   1.408       .  A
C712        H717   1.084       .  S
C713        C814   1.485       .  S
C713        C714   1.399   1_556  A
C714        C715   1.395       .  A
C714        H718   1.085       .  S
C715       C1314   1.478       .  S
C715        C716   1.406       .  A
C716        H719   1.083       .  S
C720       C1565   1.484       .  S
C720        C721   1.395       .  A
C720        C725   1.408       .  A
C721        C722   1.398       .  A
C721        H726   1.085       .  S
C722       C1085   1.487       .  S
C722        C723   1.409       .  A
C723        C724   1.416       .  A
C723        H727   1.083       .  S
C724        C725   1.416       .  A
C725        H728   1.083       .  S
C729       C1474   1.488       .  S
C729        C730   1.411       .  A
C729        C734   1.397       .  A
C730        C731   1.419       .  A
C730        H735   1.083       .  S
C731        C732   1.417       .  A
C732        C733   1.408       .  A
C732        H736   1.083       .  S
C733       C1265   1.481       .  S
C733        C734   1.395       .  A
C734        H737   1.085       .  S
C738        C739   1.420       .  A
C738        C743   1.417   1_554  A
C739        C740   1.410       .  A
C739        H744   1.083       .  S
C740       C1285   1.482       .  S
C740        C741   1.396       .  A
C741        C742   1.392   1_554  A
C741        H745   1.086       .  S
C742        C834   1.477       .  S
C742        C743   1.405       .  A
C743        H746   1.083       .  S
C747        C748   1.418       .  A
C747        C752   1.419   1_565  A
C748        C749   1.407       .  A
C748        H753   1.083       .  S
C749       C1174   1.480       .  S
C749        C750   1.394   1_565  A
C750        C751   1.394       .  A
C750        H754   1.086       .  S
C751       C1534   1.479       .  S
C751        C752   1.409       .  A
C752        H755   1.083       .  S
C756        C757   1.418       .  A
C756        C761   1.417       .  A
C757        C758   1.412       .  A
C757        H762   1.083       .  S
C758       C1494   1.490       .  S
C758        C759   1.398       .  A
C759        C760   1.397       .  A
C759        H763   1.085       .  S
C760       C1594   1.485       .  S
C760        C761   1.409       .  A
C761        H764   1.083       .  S
C765        C766   1.414       .  A
C765        C770   1.415       .  A
C766        C767   1.407       .  A
C766        H771   1.083       .  S
C767       C1734   1.480       .  S
C767        C768   1.396       .  A
C768        C769   1.397       .  A
C768        H772   1.085       .  S
C769       C1454   1.483       .  S
C769        C770   1.406       .  A
C770        H773   1.084       .  S
C774        C775   1.414   1_455  A
C774        C779   1.418       .  A
C775        C776   1.405       .  A
C775        H780   1.084       .  S
C776        C974   1.480       .  S
C776        C777   1.397   1_655  A
C777        C778   1.395       .  A
C777        H781   1.085       .  S
C778        C854   1.481       .  S
C778        C779   1.409       .  A
C779        H782   1.083       .  S
C783        C784   1.418       .  A
C783        C788   1.417   1_554  A
C784        C785   1.410       .  A
C784        H789   1.083       .  S
C785       C1214   1.484       .  S
C785        C786   1.396       .  A
C786        C787   1.395   1_554  A
C786        H790   1.085       .  S
C787        C954   1.484       .  S
C787        C788   1.407       .  A
C788        H791   1.083       .  S
C792        C934   1.486       .  S
C792        C793   1.397   1_565  A
C792        C797   1.409       .  A
C793        C794   1.393       .  A
C793        H798   1.085       .  S
C794       C1065   1.479       .  S
C794        C795   1.408       .  A
C795        C796   1.418       .  A
C795        H799   1.083       .  S
C796        C797   1.418   1_545  A
C797        H800   1.083       .  S
C801        C802   1.401       .  A
C801        C806   1.401       .  A
C801        H811   1.083       .  S
C802        C807   1.480       .  S
C802        C803   1.405       .  A
C803        C804   1.399       .  A
C803        H808   1.083       .  S
C804        C805   1.405       .  A
C804        H809   1.083       .  S
C805        C806   1.410       .  A
C806        H810   1.083       .  S
C807        C812   1.406       .  A
C807        C816   1.401       .  A
C812        C813   1.406       .  A
C812        H817   1.083       .  S
C813        C814   1.406       .  A
C813        H818   1.083       .  S
C814        C815   1.406       .  A
C815        C816   1.395       .  A
C815        H819   1.083   1_556  S
C816        H820   1.083       .  S
C821        C822   1.411       .  A
C821        C826   1.404       .  A
C821        H831   1.082       .  S
C822        C827   1.499       .  S
C822        C823   1.407       .  A
C823        C824   1.399       .  A
C823        H828   1.082       .  S
C824        C825   1.407       .  A
C824        H829   1.083       .  S
C825        C826   1.406       .  A
C826        H830   1.083       .  S
C827        C832   1.410       .  A
C827        C836   1.411       .  A
C832        C833   1.401       .  A
C832        H837   1.082       .  S
C833        C834   1.403       .  A
C833        H838   1.084       .  S
C834        C835   1.401       .  A
C835        C836   1.400       .  A
C835        H839   1.083       .  S
C836        H840   1.082       .  S
C841        C842   1.406       .  A
C841        C846   1.403       .  A
C841        H851   1.083       .  S
C842        C847   1.497   1_556  S
C842        C843   1.409       .  A
C843        C844   1.402       .  A
C843        H848   1.083       .  S
C844        C845   1.406       .  A
C844        H849   1.083       .  S
C845        C846   1.410       .  A
C846        H850   1.083       .  S
C847        C852   1.410       .  A
C847        C856   1.408       .  A
C852        C853   1.404       .  A
C852        H857   1.082       .  S
C853        C854   1.403       .  A
C853        H858   1.083       .  S
C854        C855   1.404       .  A
C855        C856   1.401       .  A
C855        H859   1.083       .  S
C856        H860   1.083       .  S
C861        C862   1.408       .  A
C861        C866   1.396       .  A
C861        H871   1.082       .  S
C862        C867   1.499       .  S
C862        C863   1.413       .  A
C863        C864   1.403       .  A
C863        H868   1.081       .  S
C864        C865   1.402       .  A
C864        H869   1.083       .  S
C865        C866   1.404       .  A
C866        H870   1.083       .  S
C867        C872   1.413       .  A
C867        C876   1.406       .  A
C872        C873   1.403       .  A
C872        H877   1.082       .  S
C873        C874   1.403       .  A
C873        H878   1.083       .  S
C874        C875   1.407       .  A
C875        C876   1.395       .  A
C875        H879   1.083       .  S
C876        H880   1.082       .  S
C881        C882   1.409       .  A
C881        C886   1.401       .  A
C881        H891   1.083       .  S
C882        C887   1.492       .  S
C882        C883   1.405       .  A
C883        C884   1.398       .  A
C883        H888   1.083       .  S
C884        C885   1.408       .  A
C884        H889   1.083       .  S
C885        C886   1.405       .  A
C886        H890   1.083       .  S
C887        C892   1.408       .  A
C887        C896   1.408       .  A
C892        C893   1.400   1_455  A
C892        H897   1.083       .  S
C893        C894   1.402       .  A
C893        H898   1.083       .  S
C894        C895   1.402       .  A
C895        C896   1.400   1_655  A
C895        H899   1.083       .  S
C896        H900   1.082       .  S
C901        C902   1.406       .  A
C901        C906   1.403       .  A
C901        H911   1.083       .  S
C902        C907   1.503       .  S
C902        C903   1.412       .  A
C903        C904   1.406       .  A
C903        H908   1.082       .  S
C904        C905   1.406       .  A
C904        H909   1.083       .  S
C905        C906   1.411       .  A
C906        H910   1.082       .  S
C907        C912   1.407       .  A
C907        C916   1.413       .  A
C912        C913   1.400       .  A
C912        H917   1.083       .  S
C913        C914   1.406       .  A
C913        H918   1.083       .  S
C914        C915   1.404       .  A
C915        C916   1.408       .  A
C915        H919   1.083       .  S
C916        H920   1.082       .  S
C921        C922   1.404       .  A
C921        C926   1.401       .  A
C921        H931   1.083   1_655  S
C922        C927   1.490   1_655  S
C922        C923   1.409       .  A
C923        C924   1.400       .  A
C923        H928   1.083       .  S
C924        C925   1.404       .  A
C924        H929   1.083       .  S
C925        C926   1.410       .  A
C926        H930   1.083       .  S
C927        C932   1.409       .  A
C927        C936   1.404       .  A
C932        C933   1.405       .  A
C932        H937   1.083       .  S
C933        C934   1.404       .  A
C933        H938   1.083       .  S
C934        C935   1.406       .  A
C935        C936   1.396       .  A
C935        H939   1.083       .  S
C936        H940   1.083   1_455  S
C941        C942   1.403       .  A
C941        C946   1.401       .  A
C941        H951   1.083   1_565  S
C942        C947   1.488   1_565  S
C942        C943   1.408       .  A
C943        C944   1.401       .  A
C943        H948   1.083       .  S
C944        C945   1.405       .  A
C944        H949   1.083       .  S
C945        C946   1.410       .  A
C946        H950   1.083       .  S
C947        C952   1.408       .  A
C947        C956   1.403       .  A
C952        C953   1.405       .  A
C952        H957   1.083       .  S
C953        C954   1.404       .  A
C953        H958   1.083       .  S
C954        C955   1.406       .  A
C955        C956   1.396       .  A
C955        H959   1.083       .  S
C956        H960   1.083   1_545  S
C961        C962   1.406       .  A
C961        C966   1.399       .  A
C961        H971   1.083       .  S
C962        C967   1.485   1_556  S
C962        C963   1.403       .  A
C963        C964   1.402       .  A
C963        H968   1.083   1_556  S
C964        C965   1.410       .  A
C964        H969   1.083       .  S
C965        C966   1.404       .  A
C966        H970   1.083       .  S
C967        C972   1.404       .  A
C967        C976   1.407       .  A
C972        C973   1.395       .  A
C972        H977   1.083   1_554  S
C973        C974   1.403       .  A
C973        H978   1.084       .  S
C974        C975   1.405       .  A
C975        C976   1.404       .  A
C975        H979   1.083       .  S
C976        H980   1.083       .  S
C981        C982   1.408       .  A
C981        C986   1.400       .  A
C981        H991   1.082       .  S
C982        C987   1.497       .  S
C982        C983   1.408       .  A
C983        C984   1.406       .  A
C983        H988   1.083       .  S
C984        C985   1.408       .  A
C984        H989   1.082       .  S
C985        C986   1.406       .  A
C986        H990   1.084       .  S
C987        C992   1.409       .  A
C987        C996   1.408       .  A
C992        C993   1.405       .  A
C992        H997   1.082       .  S
C993        C994   1.404       .  A
C993        H998   1.083       .  S
C994        C995   1.404       .  A
C995        C996   1.401       .  A
C995        H999   1.083       .  S
C996       H1000   1.083       .  S
C1001      C1002   1.406       .  A
C1001      C1006   1.404       .  A
C1001      H1011   1.083       .  S
C1002      C1007   1.490       .  S
C1002      C1003   1.406       .  A
C1003      C1004   1.400       .  A
C1003      H1008   1.083       .  S
C1004      C1005   1.403       .  A
C1004      H1009   1.083       .  S
C1005      C1006   1.406       .  A
C1006      H1010   1.083       .  S
C1007      C1012   1.405       .  A
C1007      C1016   1.406       .  A
C1012      C1013   1.405       .  A
C1012      H1017   1.083       .  S
C1013      C1014   1.410       .  A
C1013      H1018   1.083       .  S
C1014      C1015   1.407       .  A
C1015      C1016   1.400       .  A
C1015      H1019   1.083       .  S
C1016      H1020   1.083       .  S
C1021      C1022   1.406       .  A
C1021      C1026   1.402       .  A
C1021      H1031   1.083       .  S
C1022      C1027   1.492       .  S
C1022      C1023   1.409       .  A
C1023      C1024   1.401       .  A
C1023      H1028   1.083       .  S
C1024      C1025   1.402       .  A
C1024      H1029   1.084       .  S
C1025      C1026   1.406       .  A
C1026      H1030   1.083       .  S
C1027      C1032   1.403       .  A
C1027      C1036   1.409       .  A
C1032      C1033   1.398       .  A
C1032      H1037   1.083       .  S
C1033      C1034   1.408       .  A
C1033      H1038   1.083       .  S
C1034      C1035   1.407       .  A
C1035      C1036   1.404       .  A
C1035      H1039   1.083       .  S
C1036      H1040   1.083       .  S
C1041      C1042   1.409       .  A
C1041      C1046   1.402       .  A
C1041      H1051   1.082       .  S
C1042      C1047   1.493       .  S
C1042      C1043   1.405       .  A
C1043      C1044   1.400       .  A
C1043      H1048   1.083       .  S
C1044      C1045   1.408       .  A
C1044      H1049   1.083       .  S
C1045      C1046   1.406       .  A
C1046      H1050   1.083       .  S
C1047      C1052   1.408       .  A
C1047      C1056   1.409       .  A
C1052      C1053   1.400       .  A
C1052      H1057   1.083       .  S
C1053      C1054   1.403       .  A
C1053      H1058   1.083       .  S
C1054      C1055   1.403       .  A
C1055      C1056   1.401       .  A
C1055      H1059   1.084       .  S
C1056      H1060   1.082       .  S
C1061      C1062   1.409       .  A
C1061      C1066   1.402       .  A
C1061      H1071   1.083       .  S
C1062      C1067   1.499   1_455  S
C1062      C1063   1.410       .  A
C1063      C1064   1.401       .  A
C1063      H1068   1.082       .  S
C1064      C1065   1.403       .  A
C1064      H1069   1.084       .  S
C1065      C1066   1.403       .  A
C1066      H1070   1.083       .  S
C1067      C1072   1.410       .  A
C1067      C1076   1.406       .  A
C1072      C1073   1.404       .  A
C1072      H1077   1.082       .  S
C1073      C1074   1.406       .  A
C1073      H1078   1.083       .  S
C1074      C1075   1.408       .  A
C1075      C1076   1.400       .  A
C1075      H1079   1.083       .  S
C1076      H1080   1.082       .  S
C1081      C1082   1.407       .  A
C1081      C1086   1.396       .  A
C1081      H1091   1.081       .  S
C1082      C1087   1.501       .  S
C1082      C1083   1.414       .  A
C1083      C1084   1.404       .  A
C1083      H1088   1.082       .  S
C1084      C1085   1.402       .  A
C1084      H1089   1.083       .  S
C1085      C1086   1.406       .  A
C1086      H1090   1.084       .  S
C1087      C1092   1.414       .  A
C1087      C1096   1.408       .  A
C1092      C1093   1.405       .  A
C1092      H1097   1.082       .  S
C1093      C1094   1.403       .  A
C1093      H1098   1.083       .  S
C1094      C1095   1.404       .  A
C1095      C1096   1.395       .  A
C1095      H1099   1.084       .  S
C1096      H1100   1.081       .  S
C1101      C1102   1.410       .  A
C1101      C1106   1.401       .  A
C1101      H1111   1.082       .  S
C1102      C1107   1.499       .  S
C1102      C1103   1.407       .  A
C1103      C1104   1.402       .  A
C1103      H1108   1.082       .  S
C1104      C1105   1.409       .  A
C1104      H1109   1.083       .  S
C1105      C1106   1.405       .  A
C1106      H1110   1.083       .  S
C1107      C1112   1.408       .  A
C1107      C1116   1.411   1_545  A
C1112      C1113   1.399   1_545  A
C1112      H1117   1.082       .  S
C1113      C1114   1.404       .  A
C1113      H1118   1.083       .  S
C1114      C1115   1.403       .  A
C1115      C1116   1.404       .  A
C1115      H1119   1.083       .  S
C1116      H1120   1.082       .  S
C1121      C1122   1.408       .  A
C1121      C1126   1.401       .  A
C1121      H1131   1.083       .  S
C1122      C1127   1.490       .  S
C1122      C1123   1.403       .  A
C1123      C1124   1.403       .  A
C1123      H1128   1.083       .  S
C1124      C1125   1.411       .  A
C1124      H1129   1.083       .  S
C1125      C1126   1.404       .  A
C1126      H1130   1.083       .  S
C1127      C1132   1.402       .  A
C1127      C1136   1.409       .  A
C1132      C1133   1.394       .  A
C1132      H1137   1.083       .  S
C1133      C1134   1.408       .  A
C1133      H1138   1.083       .  S
C1134      C1135   1.407       .  A
C1135      C1136   1.409       .  A
C1135      H1139   1.083       .  S
C1136      H1140   1.083       .  S
C1141      C1142   1.406       .  A
C1141      C1146   1.397       .  A
C1141      H1151   1.084       .  S
C1142      C1147   1.488       .  S
C1142      C1143   1.407       .  A
C1143      C1144   1.405       .  A
C1143      H1148   1.083       .  S
C1144      C1145   1.404       .  A
C1144      H1149   1.083       .  S
C1145      C1146   1.402       .  A
C1146      H1150   1.083       .  S
C1147      C1152   1.405       .  A
C1147      C1156   1.406       .  A
C1152      C1153   1.396       .  A
C1152      H1157   1.083       .  S
C1153      C1154   1.405       .  A
C1153      H1158   1.083       .  S
C1154      C1155   1.411       .  A
C1155      C1156   1.406       .  A
C1155      H1159   1.083       .  S
C1156      H1160   1.083       .  S
C1161      C1162   1.403       .  A
C1161      C1166   1.400       .  A
C1161      H1171   1.083       .  S
C1162      C1167   1.488       .  S
C1162      C1163   1.408       .  A
C1163      C1164   1.401       .  A
C1163      H1168   1.083       .  S
C1164      C1165   1.405       .  A
C1164      H1169   1.083       .  S
C1165      C1166   1.409       .  A
C1166      H1170   1.083       .  S
C1167      C1172   1.409       .  A
C1167      C1176   1.404       .  A
C1172      C1173   1.403       .  A
C1172      H1177   1.082       .  S
C1173      C1174   1.403       .  A
C1173      H1178   1.084       .  S
C1174      C1175   1.405       .  A
C1175      C1176   1.397       .  A
C1175      H1179   1.083       .  S
C1176      H1180   1.084       .  S
C1181      C1182   1.408       .  A
C1181      C1186   1.401       .  A
C1181      H1191   1.083       .  S
C1182      C1187   1.493       .  S
C1182      C1183   1.406       .  A
C1183      C1184   1.404       .  A
C1183      H1188   1.082       .  S
C1184      C1185   1.408       .  A
C1184      H1189   1.083       .  S
C1185      C1186   1.405       .  A
C1186      H1190   1.083       .  S
C1187      C1192   1.409       .  A
C1187      C1196   1.405       .  A
C1192      C1193   1.406       .  A
C1192      H1197   1.083       .  S
C1193      C1194   1.405       .  A
C1193      H1198   1.083       .  S
C1194      C1195   1.406       .  A
C1195      C1196   1.398       .  A
C1195      H1199   1.084       .  S
C1196      H1200   1.083       .  S
C1201      C1202   1.403       .  A
C1201      C1206   1.402       .  A
C1201      H1211   1.083   1_565  S
C1202      C1207   1.489   1_565  S
C1202      C1203   1.408       .  A
C1203      C1204   1.401       .  A
C1203      H1208   1.083       .  S
C1204      C1205   1.406       .  A
C1204      H1209   1.083       .  S
C1205      C1206   1.410       .  A
C1206      H1210   1.083       .  S
C1207      C1212   1.403       .  A
C1207      C1216   1.409       .  A
C1212      C1213   1.396       .  A
C1212      H1217   1.083   1_545  S
C1213      C1214   1.406       .  A
C1213      H1218   1.083       .  S
C1214      C1215   1.404       .  A
C1215      C1216   1.406       .  A
C1215      H1219   1.083       .  S
C1216      H1220   1.083       .  S
C1221      C1222   1.405       .  A
C1221      C1226   1.402       .  A
C1221      H1231   1.083       .  S
C1222      C1227   1.491       .  S
C1222      C1223   1.408       .  A
C1223      C1224   1.404       .  A
C1223      H1228   1.083       .  S
C1224      C1225   1.403       .  A
C1224      H1229   1.083       .  S
C1225      C1226   1.407       .  A
C1226      H1230   1.083       .  S
C1227      C1232   1.406       .  A
C1227      C1236   1.406       .  A
C1232      C1233   1.405       .  A
C1232      H1237   1.083       .  S
C1233      C1234   1.408       .  A
C1233      H1238   1.083       .  S
C1234      C1235   1.407       .  A
C1235      C1236   1.401       .  A
C1235      H1239   1.083       .  S
C1236      H1240   1.083       .  S
C1241      C1242   1.405       .  A
C1241      C1246   1.405       .  A
C1241      H1251   1.083       .  S
C1242      C1247   1.490       .  S
C1242      C1243   1.406       .  A
C1243      C1244   1.400       .  A
C1243      H1248   1.083       .  S
C1244      C1245   1.406       .  A
C1244      H1249   1.083       .  S
C1245      C1246   1.410       .  A
C1246      H1250   1.083       .  S
C1247      C1252   1.407       .  A
C1247      C1256   1.406       .  A
C1252      C1253   1.404       .  A
C1252      H1257   1.083       .  S
C1253      C1254   1.405       .  A
C1253      H1258   1.083       .  S
C1254      C1255   1.403       .  A
C1255      C1256   1.400       .  A
C1255      H1259   1.083       .  S
C1256      H1260   1.083       .  S
C1261      C1262   1.406       .  A
C1261      C1266   1.398       .  A
C1261      H1271   1.084       .  S
C1262      C1267   1.492       .  S
C1262      C1263   1.408       .  A
C1263      C1264   1.405       .  A
C1263      H1268   1.082       .  S
C1264      C1265   1.404       .  A
C1264      H1269   1.084       .  S
C1265      C1266   1.404       .  A
C1266      H1270   1.083       .  S
C1267      C1272   1.406       .  A
C1267      C1276   1.406       .  A
C1272      C1273   1.399       .  A
C1272      H1277   1.083       .  S
C1273      C1274   1.407       .  A
C1273      H1278   1.083       .  S
C1274      C1275   1.409       .  A
C1275      C1276   1.405       .  A
C1275      H1279   1.082       .  S
C1276      H1280   1.083       .  S
C1281      C1282   1.402       .  A
C1281      C1286   1.396       .  A
C1281      H1291   1.083       .  S
C1282      C1287   1.486       .  S
C1282      C1283   1.408       .  A
C1283      C1284   1.406       .  A
C1283      H1288   1.083       .  S
C1284      C1285   1.404       .  A
C1284      H1289   1.083       .  S
C1285      C1286   1.406       .  A
C1286      H1290   1.084       .  S
C1287      C1292   1.408       .  A
C1287      C1296   1.401       .  A
C1292      C1293   1.403       .  A
C1292      H1297   1.083       .  S
C1293      C1294   1.405       .  A
C1293      H1298   1.083       .  S
C1294      C1295   1.411       .  A
C1295      C1296   1.400       .  A
C1295      H1299   1.083       .  S
C1296      H1300   1.083       .  S
C1301      C1302   1.405       .  A
C1301      C1306   1.406       .  A
C1301      H1311   1.083       .  S
C1302      C1307   1.488       .  S
C1302      C1303   1.404       .  A
C1303      C1304   1.397       .  A
C1303      H1308   1.083       .  S
C1304      C1305   1.406       .  A
C1304      H1309   1.083       .  S
C1305      C1306   1.410       .  A
C1306      H1310   1.083       .  S
C1307      C1312   1.406       .  A
C1307      C1316   1.406       .  A
C1312      C1313   1.405       .  A
C1312      H1317   1.083       .  S
C1313      C1314   1.405       .  A
C1313      H1318   1.083       .  S
C1314      C1315   1.402       .  A
C1315      C1316   1.398       .  A
C1315      H1319   1.083       .  S
C1316      H1320   1.084       .  S
C1321      C1322   1.408       .  A
C1321      C1326   1.400       .  A
C1321      H1331   1.083       .  S
C1322      C1327   1.498       .  S
C1322      C1323   1.407       .  A
C1323      C1324   1.407       .  A
C1323      H1328   1.083       .  S
C1324      C1325   1.410       .  A
C1324      H1329   1.083       .  S
C1325      C1326   1.407       .  A
C1326      H1330   1.083       .  S
C1327      C1332   1.406       .  A
C1327      C1336   1.411       .  A
C1332      C1333   1.397       .  A
C1332      H1337   1.083       .  S
C1333      C1334   1.407       .  A
C1333      H1338   1.084       .  S
C1334      C1335   1.406       .  A
C1335      C1336   1.410       .  A
C1335      H1339   1.083       .  S
C1336      H1340   1.083       .  S
C1341      C1342   1.402       .  A
C1341      C1346   1.401       .  A
C1341      H1351   1.083       .  S
C1342      C1347   1.488       .  S
C1342      C1343   1.408       .  A
C1343      C1344   1.403       .  A
C1343      H1348   1.083       .  S
C1344      C1345   1.404       .  A
C1344      H1349   1.083       .  S
C1345      C1346   1.411       .  A
C1346      H1350   1.083       .  S
C1347      C1352   1.407   1_554  A
C1347      C1356   1.404   1_554  A
C1352      C1353   1.405       .  A
C1352      H1357   1.083       .  S
C1353      C1354   1.405       .  A
C1353      H1358   1.083       .  S
C1354      C1355   1.405       .  A
C1355      C1356   1.397       .  A
C1355      H1359   1.083       .  S
C1356      H1360   1.083   1_556  S
C1361      C1362   1.410   1_556  A
C1361      C1366   1.406       .  A
C1361      H1371   1.083       .  S
C1362      C1367   1.490       .  S
C1362      C1363   1.404       .  A
C1363      C1364   1.395   1_554  A
C1363      H1368   1.083       .  S
C1364      C1365   1.406       .  A
C1364      H1369   1.083       .  S
C1365      C1366   1.404       .  A
C1366      H1370   1.083       .  S
C1367      C1372   1.404       .  A
C1367      C1376   1.408       .  A
C1372      C1373   1.401       .  A
C1372      H1377   1.083       .  S
C1373      C1374   1.409       .  A
C1373      H1378   1.083       .  S
C1374      C1375   1.405       .  A
C1375      C1376   1.400       .  A
C1375      H1379   1.083       .  S
C1376      H1380   1.083       .  S
C1381      C1382   1.408       .  A
C1381      C1386   1.398       .  A
C1381      H1391   1.083       .  S
C1382      C1387   1.485       .  S
C1382      C1383   1.403       .  A
C1383      C1384   1.400       .  A
C1383      H1388   1.083       .  S
C1384      C1385   1.410       .  A
C1384      H1389   1.083       .  S
C1385      C1386   1.404       .  A
C1386      H1390   1.083       .  S
C1387      C1392   1.403       .  A
C1387      C1396   1.408       .  A
C1392      C1393   1.394       .  A
C1392      H1397   1.083       .  S
C1393      C1394   1.404       .  A
C1393      H1398   1.083       .  S
C1394      C1395   1.403       .  A
C1395      C1396   1.404       .  A
C1395      H1399   1.083       .  S
C1396      H1400   1.082       .  S
C1401      C1402   1.409       .  A
C1401      C1406   1.401       .  A
C1401      H1411   1.083       .  S
C1402      C1407   1.494       .  S
C1402      C1403   1.406       .  A
C1403      C1404   1.400       .  A
C1403      H1408   1.082       .  S
C1404      C1405   1.408       .  A
C1404      H1409   1.083       .  S
C1405      C1406   1.405       .  A
C1406      H1410   1.083       .  S
C1407      C1412   1.408       .  A
C1407      C1416   1.409       .  A
C1412      C1413   1.399       .  A
C1412      H1417   1.082       .  S
C1413      C1414   1.403       .  A
C1413      H1418   1.084       .  S
C1414      C1415   1.402       .  A
C1415      C1416   1.401       .  A
C1415      H1419   1.083       .  S
C1416      H1420   1.082       .  S
C1421      C1422   1.405       .  A
C1421      C1426   1.398       .  A
C1421      H1431   1.083       .  S
C1422      C1427   1.496       .  S
C1422      C1423   1.411       .  A
C1423      C1424   1.403       .  A
C1423      H1428   1.082       .  S
C1424      C1425   1.405       .  A
C1424      H1429   1.083       .  S
C1425      C1426   1.408       .  A
C1426      H1430   1.083       .  S
C1427      C1432   1.410       .  A
C1427      C1436   1.408       .  A
C1432      C1433   1.400       .  A
C1432      H1437   1.082       .  S
C1433      C1434   1.401       .  A
C1433      H1438   1.084       .  S
C1434      C1435   1.404       .  A
C1435      C1436   1.400       .  A
C1435      H1439   1.083       .  S
C1436      H1440   1.083       .  S
C1441      C1442   1.404       .  A
C1441      C1446   1.399       .  A
C1441      H1451   1.083       .  S
C1442      C1447   1.493       .  S
C1442      C1443   1.410       .  A
C1443      C1444   1.402       .  A
C1443      H1448   1.083       .  S
C1444      C1445   1.404       .  A
C1444      H1449   1.083       .  S
C1445      C1446   1.409       .  A
C1446      H1450   1.083       .  S
C1447      C1452   1.405       .  A
C1447      C1456   1.411       .  A
C1452      C1453   1.397       .  A
C1452      H1457   1.083       .  S
C1453      C1454   1.405       .  A
C1453      H1458   1.084       .  S
C1454      C1455   1.403       .  A
C1455      C1456   1.403       .  A
C1455      H1459   1.083       .  S
C1456      H1460   1.083       .  S
C1461      C1462   1.404       .  A
C1461      C1466   1.401       .  A
C1461      H1471   1.083       .  S
C1462      C1467   1.496       .  S
C1462      C1463   1.411       .  A
C1463      C1464   1.404       .  A
C1463      H1468   1.082       .  S
C1464      C1465   1.405       .  A
C1464      H1469   1.083       .  S
C1465      C1466   1.411       .  A
C1466      H1470   1.083       .  S
C1467      C1472   1.411       .  A
C1467      C1476   1.405       .  A
C1472      C1473   1.406       .  A
C1472      H1477   1.083       .  S
C1473      C1474   1.404       .  A
C1473      H1478   1.083       .  S
C1474      C1475   1.406       .  A
C1475      C1476   1.398       .  A
C1475      H1479   1.084       .  S
C1476      H1480   1.083       .  S
C1481      C1482   1.407       .  A
C1481      C1486   1.402       .  A
C1481      H1491   1.082       .  S
C1482      C1487   1.501       .  S
C1482      C1483   1.411       .  A
C1483      C1484   1.403       .  A
C1483      H1488   1.082       .  S
C1484      C1485   1.406       .  A
C1484      H1489   1.083       .  S
C1485      C1486   1.409       .  A
C1486      H1490   1.083       .  S
C1487      C1492   1.412       .  A
C1487      C1496   1.407       .  A
C1492      C1493   1.406       .  A
C1492      H1497   1.082       .  S
C1493      C1494   1.403       .  A
C1493      H1498   1.083       .  S
C1494      C1495   1.407       .  A
C1495      C1496   1.400       .  A
C1495      H1499   1.084       .  S
C1496      H1500   1.082       .  S
C1501      C1502   1.406       .  A
C1501      C1506   1.399       .  A
C1501      H1511   1.083       .  S
C1502      C1507   1.492       .  S
C1502      C1503   1.409       .  A
C1503      C1504   1.404       .  A
C1503      H1508   1.083       .  S
C1504      C1505   1.403       .  A
C1504      H1509   1.083       .  S
C1505      C1506   1.404       .  A
C1506      H1510   1.084       .  S
C1507      C1512   1.405       .  A
C1507      C1516   1.408       .  A
C1512      C1513   1.400       .  A
C1512      H1517   1.083       .  S
C1513      C1514   1.409       .  A
C1513      H1518   1.083       .  S
C1514      C1515   1.406       .  A
C1515      C1516   1.403       .  A
C1515      H1519   1.083       .  S
C1516      H1520   1.083       .  S
C1521      C1522   1.411       .  A
C1521      C1526   1.404       .  A
C1521      H1531   1.082       .  S
C1522      C1527   1.495       .  S
C1522      C1523   1.404       .  A
C1523      C1524   1.399       .  A
C1523      H1528   1.083       .  S
C1524      C1525   1.410       .  A
C1524      H1529   1.083       .  S
C1525      C1526   1.405       .  A
C1526      H1530   1.083       .  S
C1527      C1532   1.406       .  A
C1527      C1536   1.410       .  A
C1532      C1533   1.399       .  A
C1532      H1537   1.083       .  S
C1533      C1534   1.405       .  A
C1533      H1538   1.083       .  S
C1534      C1535   1.402       .  A
C1535      C1536   1.403       .  A
C1535      H1539   1.083       .  S
C1536      H1540   1.082       .  S
C1541      C1542   1.408       .  A
C1541      C1546   1.400       .  A
C1541      H1551   1.082       .  S
C1542      C1547   1.506       .  S
C1542      C1543   1.415       .  A
C1543      C1544   1.405       .  A
C1543      H1548   1.081       .  S
C1544      C1545   1.402       .  A
C1544      H1549   1.083       .  S
C1545      C1546   1.408       .  A
C1546      H1550   1.083       .  S
C1547      C1552   1.415       .  A
C1547      C1556   1.407       .  A
C1552      C1553   1.407       .  A
C1552      H1557   1.082       .  S
C1553      C1554   1.404       .  A
C1553      H1558   1.083       .  S
C1554      C1555   1.406       .  A
C1555      C1556   1.396       .  A
C1555      H1559   1.083       .  S
C1556      H1560   1.081       .  S
C1561      C1562   1.405       .  A
C1561      C1566   1.399       .  A
C1561      H1571   1.083       .  S
C1562      C1567   1.493       .  S
C1562      C1563   1.410       .  A
C1563      C1564   1.403       .  A
C1563      H1568   1.083       .  S
C1564      C1565   1.403       .  A
C1564      H1569   1.083       .  S
C1565      C1566   1.406       .  A
C1566      H1570   1.083       .  S
C1567      C1572   1.404       .  A
C1567      C1576   1.410       .  A
C1572      C1573   1.399       .  A
C1572      H1577   1.083       .  S
C1573      C1574   1.409       .  A
C1573      H1578   1.083       .  S
C1574      C1575   1.405       .  A
C1575      C1576   1.403       .  A
C1575      H1579   1.083       .  S
C1576      H1580   1.083       .  S
C1581      C1582   1.407       .  A
C1581      C1586   1.403       .  A
C1581      H1591   1.083       .  S
C1582      C1587   1.500       .  S
C1582      C1583   1.411       .  A
C1583      C1584   1.402       .  A
C1583      H1588   1.082       .  S
C1584      C1585   1.405       .  A
C1584      H1589   1.083       .  S
C1585      C1586   1.409       .  A
C1586      H1590   1.082       .  S
C1587      C1592   1.407       .  A
C1587      C1596   1.412       .  A
C1592      C1593   1.399       .  A
C1592      H1597   1.083       .  S
C1593      C1594   1.405       .  A
C1593      H1598   1.083       .  S
C1594      C1595   1.403       .  A
C1595      C1596   1.405       .  A
C1595      H1599   1.083       .  S
C1596      H1600   1.082       .  S
C1601      C1602   1.407       .  A
C1601      C1606   1.400       .  A
C1601      H1611   1.082       .  S
C1602      C1607   1.500       .  S
C1602      C1603   1.411       .  A
C1603      C1604   1.403       .  A
C1603      H1608   1.082       .  S
C1604      C1605   1.405       .  A
C1604      H1609   1.083       .  S
C1605      C1606   1.408       .  A
C1606      H1610   1.083       .  S
C1607      C1612   1.411       .  A
C1607      C1616   1.409       .  A
C1612      C1613   1.403       .  A
C1612      H1617   1.082       .  S
C1613      C1614   1.402       .  A
C1613      H1618   1.083       .  S
C1614      C1615   1.404       .  A
C1615      C1616   1.400       .  A
C1615      H1619   1.083       .  S
C1616      H1620   1.082       .  S
C1621      C1622   1.408       .  A
C1621      C1626   1.401       .  A
C1621      H1631   1.083       .  S
C1622      C1627   1.490       .  S
C1622      C1623   1.405       .  A
C1623      C1624   1.400       .  A
C1623      H1628   1.083       .  S
C1624      C1625   1.409       .  A
C1624      H1629   1.083       .  S
C1625      C1626   1.405       .  A
C1626      H1630   1.083       .  S
C1627      C1632   1.408   1_545  A
C1627      C1636   1.406   1_545  A
C1632      C1633   1.401       .  A
C1632      H1637   1.083       .  S
C1633      C1634   1.402       .  A
C1633      H1638   1.084       .  S
C1634      C1635   1.404       .  A
C1635      C1636   1.399       .  A
C1635      H1639   1.083       .  S
C1636      H1640   1.083   1_565  S
C1641      C1642   1.405       .  A
C1641      C1646   1.398       .  A
C1641      H1651   1.082       .  S
C1642      C1647   1.497       .  S
C1642      C1643   1.411       .  A
C1643      C1644   1.404       .  A
C1643      H1648   1.082       .  S
C1644      C1645   1.405       .  A
C1644      H1649   1.083       .  S
C1645      C1646   1.409       .  A
C1646      H1650   1.083       .  S
C1647      C1652   1.410       .  A
C1647      C1656   1.408       .  A
C1652      C1653   1.401       .  A
C1652      H1657   1.082       .  S
C1653      C1654   1.402       .  A
C1653      H1658   1.083       .  S
C1654      C1655   1.403       .  A
C1655      C1656   1.401       .  A
C1655      H1659   1.083       .  S
C1656      H1660   1.082       .  S
C1661      C1662   1.404       .  A
C1661      C1666   1.399       .  A
C1661      H1671   1.083       .  S
C1662      C1667   1.494       .  S
C1662      C1663   1.410       .  A
C1663      C1664   1.402       .  A
C1663      H1668   1.082       .  S
C1664      C1665   1.405       .  A
C1664      H1669   1.083       .  S
C1665      C1666   1.409       .  A
C1666      H1670   1.083       .  S
C1667      C1672   1.406       .  A
C1667      C1676   1.411       .  A
C1672      C1673   1.398       .  A
C1672      H1677   1.083       .  S
C1673      C1674   1.405       .  A
C1673      H1678   1.083       .  S
C1674      C1675   1.402       .  A
C1675      C1676   1.403       .  A
C1675      H1679   1.084       .  S
C1676      H1680   1.082       .  S
C1681      C1682   1.409       .  A
C1681      C1686   1.401       .  A
C1681      H1691   1.083       .  S
C1682      C1687   1.493       .  S
C1682      C1683   1.404       .  A
C1683      C1684   1.400       .  A
C1683      H1688   1.083       .  S
C1684      C1685   1.410       .  A
C1684      H1689   1.083       .  S
C1685      C1686   1.404       .  A
C1686      H1690   1.083       .  S
C1687      C1692   1.406       .  A
C1687      C1696   1.409       .  A
C1692      C1693   1.398       .  A
C1692      H1697   1.083       .  S
C1693      C1694   1.404       .  A
C1693      H1698   1.083       .  S
C1694      C1695   1.403       .  A
C1695      C1696   1.403       .  A
C1695      H1699   1.083       .  S
C1696      H1700   1.083       .  S
C1701      C1702   1.409       .  A
C1701      C1706   1.402       .  A
C1701      H1711   1.083       .  S
C1702      C1707   1.489       .  S
C1702      C1703   1.403       .  A
C1703      C1704   1.396       .  A
C1703      H1708   1.083       .  S
C1704      C1705   1.409       .  A
C1704      H1709   1.083       .  S
C1705      C1706   1.405       .  A
C1706      H1710   1.083       .  S
C1707      C1712   1.409       .  A
C1707      C1716   1.405       .  A
C1712      C1713   1.400       .  A
C1712      H1717   1.083       .  S
C1713      C1714   1.401       .  A
C1713      H1718   1.083       .  S
C1714      C1715   1.404       .  A
C1715      C1716   1.398       .  A
C1715      H1719   1.084       .  S
C1716      H1720   1.082       .  S
C1721      C1722   1.405       .  A
C1721      C1726   1.400       .  A
C1721      H1731   1.083       .  S
C1722      C1727   1.495       .  S
C1722      C1723   1.410       .  A
C1723      C1724   1.401       .  A
C1723      H1728   1.082       .  S
C1724      C1725   1.405       .  A
C1724      H1729   1.083       .  S
C1725      C1726   1.409       .  A
C1726      H1730   1.083       .  S
C1727      C1732   1.406       .  A
C1727      C1736   1.410       .  A
C1732      C1733   1.398       .  A
C1732      H1737   1.082       .  S
C1733      C1734   1.404       .  A
C1733      H1738   1.084       .  S
C1734      C1735   1.402       .  A
C1735      C1736   1.403       .  A
C1735      H1739   1.083       .  S
C1736      H1740   1.083       .  S
C1741      C1742   1.408       .  A
C1741      C1746   1.400       .  A
C1741      H1751   1.083       .  S
C1742      C1747   1.484       .  S
C1742      C1743   1.402       .  A
C1743      C1744   1.396       .  A
C1743      H1748   1.083       .  S
C1744      C1745   1.408       .  A
C1744      H1749   1.083       .  S
C1745      C1746   1.405       .  A
C1746      H1750   1.083       .  S
C1747      C1752   1.405       .  A
C1747      C1756   1.407   1_455  A
C1752      C1753   1.397   1_455  A
C1752      H1757   1.083       .  S
C1753      C1754   1.403       .  A
C1753      H1758   1.083       .  S
C1754      C1755   1.402       .  A
C1755      C1756   1.399       .  A
C1755      H1759   1.084       .  S
C1756      H1760   1.083   1_655  S
C1761      C1762   1.406       .  A
C1761      C1766   1.402       .  A
C1761      H1771   1.083       .  S
C1762      C1767   1.490   1_565  S
C1762      C1763   1.406       .  A
C1763      C1764   1.398       .  A
C1763      H1768   1.083       .  S
C1764      C1765   1.405       .  A
C1764      H1769   1.083       .  S
C1765      C1766   1.409       .  A
C1766      H1770   1.083       .  S
C1767      C1772   1.407       .  A
C1767      C1776   1.408       .  A
C1772      C1773   1.401       .  A
C1772      H1777   1.083       .  S
C1773      C1774   1.403       .  A
C1773      H1778   1.083       .  S
C1774      C1775   1.402       .  A
C1775      C1776   1.399       .  A
C1775      H1779   1.083       .  S
C1776      H1780   1.083       .  S
C1781      C1782   1.411       .  A
C1781      C1786   1.403       .  A
C1781      H1791   1.082       .  S
C1782      C1787   1.500       .  S
C1782      C1783   1.407       .  A
C1783      C1784   1.400       .  A
C1783      H1788   1.082       .  S
C1784      C1785   1.408       .  A
C1784      H1789   1.083       .  S
C1785      C1786   1.406       .  A
C1786      H1790   1.083       .  S
C1787      C1792   1.409       .  A
C1787      C1796   1.410       .  A
C1792      C1793   1.402       .  A
C1792      H1797   1.083       .  S
C1793      C1794   1.404       .  A
C1793      H1798   1.083       .  S
C1794      C1795   1.403       .  A
C1795      C1796   1.401       .  A
C1795      H1799   1.084       .  S
C1796      H1800   1.082       .  S
C1801      C1802   1.410       .  A
C1801      C1806   1.403       .  A
C1801      H1811   1.083       .  S
C1802      C1807   1.491       .  S
C1802      C1803   1.403       .  A
C1803      C1804   1.396       .  A
C1803      H1808   1.083       .  S
C1804      C1805   1.409       .  A
C1804      H1809   1.083       .  S
C1805      C1806   1.405       .  A
C1806      H1810   1.083       .  S
C1807      C1812   1.406       .  A
C1807      C1816   1.410       .  A
C1812      C1813   1.399       .  A
C1812      H1817   1.083       .  S
C1813      C1814   1.404       .  A
C1813      H1818   1.083       .  S
C1814      C1815   1.401       .  A
C1815      C1816   1.401       .  A
C1815      H1819   1.083       .  S
C1816      H1820   1.083       .  S
C1821      C1822   1.406       .  A
C1821      C1826   1.400       .  A
C1821      H1831   1.082       .  S
C1822      C1827   1.493       .  S
C1822      C1823   1.409       .  A
C1823      C1824   1.400       .  A
C1823      H1828   1.083       .  S
C1824      C1825   1.404       .  A
C1824      H1829   1.083       .  S
C1825      C1826   1.408       .  A
C1826      H1830   1.083       .  S
C1827      C1832   1.410       .  A
C1827      C1836   1.406       .  A
C1832      C1833   1.403       .  A
C1832      H1837   1.083       .  S
C1833      C1834   1.403       .  A
C1833      H1838   1.083       .  S
C1834      C1835   1.406       .  A
C1835      C1836   1.397       .  A
C1835      H1839   1.084       .  S
C1836      H1840   1.083       .  S
C1841      C1842   1.405       .  A
C1841      C1846   1.403       .  A
C1841      H1851   1.083       .  S
C1842      C1847   1.491       .  S
C1842      C1843   1.408       .  A
C1843      C1844   1.401       .  A
C1843      H1848   1.083       .  S
C1844      C1845   1.405       .  A
C1844      H1849   1.083       .  S
C1845      C1846   1.408       .  A
C1846      H1850   1.083       .  S
C1847      C1852   1.409       .  A
C1847      C1856   1.404       .  A
C1852      C1853   1.405       .  A
C1852      H1857   1.083       .  S
C1853      C1854   1.404       .  A
C1853      H1858   1.083       .  S
C1854      C1855   1.406       .  A
C1855      C1856   1.398       .  A
C1855      H1859   1.083       .  S
C1856      H1860   1.083       .  S
C1861      C1862   1.407       .  A
C1861      C1866   1.398       .  A
C1861      H1871   1.083       .  S
C1862      C1867   1.490   1_565  S
C1862      C1863   1.405       .  A
C1863      C1864   1.403       .  A
C1863      H1868   1.083       .  S
C1864      C1865   1.411       .  A
C1864      H1869   1.083       .  S
C1865      C1866   1.404       .  A
C1866      H1870   1.083       .  S
C1867      C1872   1.404       .  A
C1867      C1876   1.409       .  A
C1872      C1873   1.396       .  A
C1872      H1877   1.083   1_545  S
C1873      C1874   1.405       .  A
C1873      H1878   1.083       .  S
C1874      C1875   1.405       .  A
C1875      C1876   1.406       .  A
C1875      H1879   1.083       .  S
C1876      H1880   1.083       .  S
C1881      C1882   1.405       .  A
C1881      C1886   1.401       .  A
C1881      H1891   1.083       .  S
C1882      C1887   1.494       .  S
C1882      C1883   1.409       .  A
C1883      C1884   1.407       .  A
C1883      H1888   1.083       .  S
C1884      C1885   1.406       .  A
C1884      H1889   1.083       .  S
C1885      C1886   1.406       .  A
C1886      H1890   1.084       .  S
C1887      C1892   1.410       .  A
C1887      C1896   1.403       .  A
C1892      C1893   1.405       .  A
C1892      H1897   1.083       .  S
C1893      C1894   1.405       .  A
C1893      H1898   1.083       .  S
C1894      C1895   1.411       .  A
C1895      C1896   1.403       .  A
C1895      H1899   1.083       .  S
C1896      H1900   1.083       .  S
C1901      C1902   1.405       .  A
C1901      C1906   1.398       .  A
C1901      H1911   1.083       .  S
C1902      C1907   1.488       .  S
C1902      C1903   1.405       .  A
C1903      C1904   1.405       .  A
C1903      H1908   1.083       .  S
C1904      C1905   1.409       .  A
C1904      H1909   1.083       .  S
C1905      C1906   1.404       .  A
C1906      H1910   1.083       .  S
C1907      C1912   1.406       .  A
C1907      C1916   1.407       .  A
C1912      C1913   1.403       .  A
C1912      H1917   1.083       .  S
C1913      C1914   1.405       .  A
C1913      H1918   1.083       .  S
C1914      C1915   1.402       .  A
C1915      C1916   1.400       .  A
C1915      H1919   1.083       .  S
C1916      H1920   1.083       .  S
C1921      C1922   1.408       .  A
C1921      C1926   1.401       .  A
C1921      H1931   1.083       .  S
C1922      C1927   1.487       .  S
C1922      C1923   1.402       .  A
C1923      C1924   1.400       .  A
C1923      H1928   1.083       .  S
C1924      C1925   1.409       .  A
C1924      H1929   1.083       .  S
C1925      C1926   1.405       .  A
C1926      H1930   1.083       .  S
C1927      C1932   1.403       .  A
C1927      C1936   1.408       .  A
C1932      C1933   1.397       .  A
C1932      H1937   1.083       .  S
C1933      C1934   1.405       .  A
C1933      H1938   1.083       .  S
C1934      C1935   1.403       .  A
C1935      C1936   1.404       .  A
C1935      H1939   1.083       .  S
C1936      H1940   1.083       .  S
C1941      C1942   1.404       .  A
C1941      C1946   1.396       .  A
C1941      H1951   1.083       .  S
C1942      C1947   1.489       .  S
C1942      C1943   1.409       .  A
C1943      C1944   1.405       .  A
C1943      H1948   1.083       .  S
C1944      C1945   1.404       .  A
C1944      H1949   1.083       .  S
C1945      C1946   1.405       .  A
C1946      H1950   1.084       .  S
C1947      C1952   1.407       .  A
C1947      C1956   1.404       .  A
C1952      C1953   1.399       .  A
C1952      H1957   1.083       .  S
C1953      C1954   1.405       .  A
C1953      H1958   1.083       .  S
C1954      C1955   1.409       .  A
C1955      C1956   1.403       .  A
C1955      H1959   1.083       .  S
C1956      H1960   1.083       .  S
C1961      C1962   1.409       .  A
C1961      C1966   1.402       .  A
C1961      H1971   1.083       .  S
C1962      C1967   1.493       .  S
C1962      C1963   1.404       .  A
C1963      C1964   1.402       .  A
C1963      H1968   1.083       .  S
C1964      C1965   1.410       .  A
C1964      H1969   1.083       .  S
C1965      C1966   1.405       .  A
C1966      H1970   1.083       .  S
C1967      C1972   1.405   1_554  A
C1967      C1976   1.410   1_554  A
C1972      C1973   1.398       .  A
C1972      H1977   1.083   1_556  S
C1973      C1974   1.404       .  A
C1973      H1978   1.084       .  S
C1974      C1975   1.404       .  A
C1975      C1976   1.406       .  A
C1975      H1979   1.083       .  S
C1976      H1980   1.083       .  S
C1981      C1982   1.407       .  A
C1981      C1986   1.399       .  A
C1981      H1991   1.083       .  S
C1982      C1987   1.496       .  S
C1982      C1983   1.411       .  A
C1983      C1984   1.402       .  A
C1983      H1988   1.082       .  S
C1984      C1985   1.402       .  A
C1984      H1989   1.083       .  S
C1985      C1986   1.406       .  A
C1986      H1990   1.083       .  S
C1987      C1992   1.405       .  A
C1987      C1996   1.411       .  A
C1992      C1993   1.399       .  A
C1992      H1997   1.083       .  S
C1993      C1994   1.409       .  A
C1993      H1998   1.083       .  S
C1994      C1995   1.405       .  A
C1995      C1996   1.403       .  A
C1995      H1999   1.083       .  S
C1996      H2000   1.082       .  S
C2001      C2002   1.409       .  A
C2001      C2006   1.402       .  A
C2001      H2011   1.083       .  S
C2002      C2007   1.492       .  S
C2002      C2003   1.404       .  A
C2003      C2004   1.402       .  A
C2003      H2008   1.083       .  S
C2004      C2005   1.410       .  A
C2004      H2009   1.083       .  S
C2005      C2006   1.405       .  A
C2006      H2010   1.083       .  S
C2007      C2012   1.403       .  A
C2007      C2016   1.410       .  A
C2012      C2013   1.396       .  A
C2012      H2017   1.083       .  S
C2013      C2014   1.407       .  A
C2013      H2018   1.083       .  S
C2014      C2015   1.404       .  A
C2015      C2016   1.407       .  A
C2015      H2019   1.083       .  S
C2016      H2020   1.082       .  S
C2021      C2022   1.404       .  A
C2021      C2026   1.394       .  A
C2021      H2031   1.083   1_565  S
C2022      C2027   1.487   1_565  S
C2022      C2023   1.409       .  A
C2023      C2024   1.404       .  A
C2023      H2028   1.083       .  S
C2024      C2025   1.403       .  A
C2024      H2029   1.083       .  S
C2025      C2026   1.404       .  A
C2026      H2030   1.083       .  S
C2027      C2032   1.408       .  A
C2027      C2036   1.403       .  A
C2032      C2033   1.399       .  A
C2032      H2037   1.083       .  S
C2033      C2034   1.404       .  A
C2033      H2038   1.083       .  S
C2034      C2035   1.409       .  A
C2035      C2036   1.399       .  A
C2035      H2039   1.083       .  S
C2036      H2040   1.083       .  S
C2041      C2042   1.407       .  A
C2041      C2046   1.405       .  A
C2041      H2051   1.083       .  S
C2042      C2047   1.483       .  S
C2042      C2043   1.402       .  A
C2043      C2044   1.396       .  A
C2043      H2048   1.083       .  S
C2044      C2045   1.406       .  A
C2044      H2049   1.084       .  S
C2045      C2046   1.404       .  A
C2046      H2050   1.083       .  S
C2047      C2052   1.403       .  A
C2047      C2056   1.405       .  A
C2052      C2053   1.402       .  A
C2052      H2057   1.083       .  S
C2053      C2054   1.409       .  A
C2053      H2058   1.083       .  S
C2054      C2055   1.405       .  A
C2055      C2056   1.398       .  A
C2055      H2059   1.083       .  S
C2056      H2060   1.083       .  S
C2061      C2062   1.407   1_655  A
C2061      C2066   1.398       .  A
C2061      H2071   1.082   1_655  S
C2062      C2067   1.494       .  S
C2062      C2063   1.410   1_455  A
C2063      C2064   1.404       .  A
C2063      H2068   1.083       .  S
C2064      C2065   1.403       .  A
C2064      H2069   1.083       .  S
C2065      C2066   1.403       .  A
C2066      H2070   1.084       .  S
C2067      C2072   1.406       .  A
C2067      C2076   1.409       .  A
C2072      C2073   1.401       .  A
C2072      H2077   1.082       .  S
C2073      C2074   1.409       .  A
C2073      H2078   1.083       .  S
C2074      C2075   1.406       .  A
C2075      C2076   1.401       .  A
C2075      H2079   1.083       .  S
C2076      H2080   1.083       .  S
C2081      C2082   1.410   1_655  A
C2081      C2086   1.406       .  A
C2081      H2091   1.083       .  S
C2082      C2087   1.492       .  S
C2082      C2083   1.404   1_455  A
C2083      C2084   1.397       .  A
C2083      H2088   1.083   1_655  S
C2084      C2085   1.405       .  A
C2084      H2089   1.083       .  S
C2085      C2086   1.404       .  A
C2086      H2090   1.083       .  S
C2087      C2092   1.403       .  A
C2087      C2096   1.409       .  A
C2092      C2093   1.401       .  A
C2092      H2097   1.083       .  S
C2093      C2094   1.411       .  A
C2093      H2098   1.083       .  S
C2094      C2095   1.404       .  A
C2095      C2096   1.402       .  A
C2095      H2099   1.083       .  S
C2096      H2100   1.083       .  S
C2101      C2102   1.403       .  A
C2101      C2106   1.396       .  A
C2101      H2111   1.083       .  S
C2102      C2107   1.489       .  S
C2102      C2103   1.409       .  A
C2103      C2104   1.407       .  A
C2103      H2108   1.083       .  S
C2104      C2105   1.405       .  A
C2104      H2109   1.083       .  S
C2105      C2106   1.407       .  A
C2106      H2110   1.083   1_565  S
C2107      C2112   1.408       .  A
C2107      C2116   1.403       .  A
C2112      C2113   1.400       .  A
C2112      H2117   1.083       .  S
C2113      C2114   1.405       .  A
C2113      H2118   1.083       .  S
C2114      C2115   1.411       .  A
C2115      C2116   1.402       .  A
C2115      H2119   1.083       .  S
C2116      H2120   1.083       .  S
C2121      C2122   1.404       .  A
C2121      C2126   1.401       .  A
C2121      H2131   1.083       .  S
C2122      C2127   1.490   1_545  S
C2122      C2123   1.408       .  A
C2123      C2124   1.403       .  A
C2123      H2128   1.083       .  S
C2124      C2125   1.404       .  A
C2124      H2129   1.083       .  S
C2125      C2126   1.409       .  A
C2126      H2130   1.083       .  S
C2127      C2132   1.408       .  A
C2127      C2136   1.406       .  A
C2132      C2133   1.403       .  A
C2132      H2137   1.083       .  S
C2133      C2134   1.404       .  A
C2133      H2138   1.083       .  S
C2134      C2135   1.404       .  A
C2135      C2136   1.400       .  A
C2135      H2139   1.083       .  S
C2136      H2140   1.083       .  S
C2141      C2142   1.408       .  A
C2141      C2146   1.403       .  A
C2141      H2151   1.083       .  S
C2142      C2147   1.485       .  S
C2142      C2143   1.403       .  A
C2143      C2144   1.397       .  A
C2143      H2148   1.083       .  S
C2144      C2145   1.406       .  A
C2144      H2149   1.083       .  S
C2145      C2146   1.403       .  A
C2146      H2150   1.083       .  S
C2147      C2152   1.402       .  A
C2147      C2156   1.408       .  A
C2152      C2153   1.399       .  A
C2152      H2157   1.083       .  S
C2153      C2154   1.409       .  A
C2153      H2158   1.083       .  S
C2154      C2155   1.404       .  A
C2155      C2156   1.401       .  A
C2155      H2159   1.083       .  S
C2156      H2160   1.083       .  S
C2161      C2162   1.403       .  A
C2161      C2166   1.400       .  A
C2161      H2171   1.083   1_556  S
C2162      C2167   1.491   1_556  S
C2162      C2163   1.409       .  A
C2163      C2164   1.403       .  A
C2163      H2168   1.083       .  S
C2164      C2165   1.405       .  A
C2164      H2169   1.083       .  S
C2165      C2166   1.410       .  A
C2166      H2170   1.083       .  S
C2167      C2172   1.410       .  A
C2167      C2176   1.404       .  A
C2172      C2173   1.405       .  A
C2172      H2177   1.083       .  S
C2173      C2174   1.403       .  A
C2173      H2178   1.083       .  S
C2174      C2175   1.405       .  A
C2175      C2176   1.397       .  A
C2175      H2179   1.083       .  S
C2176      H2180   1.083   1_554  S
C2181      C2182   1.409       .  A
C2181      C2186   1.405       .  A
C2181      H2191   1.083       .  S
C2182      C2187   1.489       .  S
C2182      C2183   1.403       .  A
C2183      C2184   1.396       .  A
C2183      H2188   1.083       .  S
C2184      C2185   1.406       .  A
C2184      H2189   1.083       .  S
C2185      C2186   1.404       .  A
C2186      H2190   1.083       .  S
C2187      C2192   1.404       .  A
C2187      C2196   1.408       .  A
C2192      C2193   1.402       .  A
C2192      H2197   1.083       .  S
C2193      C2194   1.410       .  A
C2193      H2198   1.083       .  S
C2194      C2195   1.404       .  A
C2195      C2196   1.399       .  A
C2195      H2199   1.083       .  S
C2196      H2200   1.083       .  S
C2201      C2202   1.408       .  A
C2201      C2206   1.403       .  A
C2201      H2211   1.083       .  S
C2202      C2207   1.490       .  S
C2202      C2203   1.403       .  A
C2203      C2204   1.402       .  A
C2203      H2208   1.083       .  S
C2204      C2205   1.411       .  A
C2204      H2209   1.083       .  S
C2205      C2206   1.405       .  A
C2206      H2210   1.083       .  S
C2207      C2212   1.405       .  A
C2207      C2216   1.408       .  A
C2212      C2213   1.399       .  A
C2212      H2217   1.083       .  S
C2213      C2214   1.404       .  A
C2213      H2218   1.083       .  S
C2214      C2215   1.405       .  A
C2215      C2216   1.405       .  A
C2215      H2219   1.083       .  S
C2216      H2220   1.083       .  S
C2221      C2222   1.406       .  A
C2221      C2226   1.397       .  A
C2221      H2231   1.083       .  S
C2222      C2227   1.488       .  S
C2222      C2223   1.405       .  A
C2223      C2224   1.404       .  A
C2223      H2228   1.083       .  S
C2224      C2225   1.409       .  A
C2224      H2229   1.083       .  S
C2225      C2226   1.404       .  A
C2226      H2230   1.083       .  S
C2227      C2232   1.407       .  A
C2227      C2236   1.406       .  A
C2232      C2233   1.403       .  A
C2232      H2237   1.083       .  S
C2233      C2234   1.404       .  A
C2233      H2238   1.083       .  S
C2234      C2235   1.403       .  A
C2235      C2236   1.397       .  A
C2235      H2239   1.083       .  S
C2236      H2240   1.083       .  S
C2241      C2242   1.408       .  A
C2241      C2246   1.400       .  A
C2241      H2251   1.082       .  S
C2242      C2247   1.498       .  S
C2242      C2243   1.411       .  A
C2243      C2244   1.402       .  A
C2243      H2248   1.082       .  S
C2244      C2245   1.402       .  A
C2244      H2249   1.083       .  S
C2245      C2246   1.404       .  A
C2246      H2250   1.084       .  S
C2247      C2252   1.411       .  A
C2247      C2256   1.407       .  A
C2252      C2253   1.402       .  A
C2252      H2257   1.082       .  S
C2253      C2254   1.405       .  A
C2253      H2258   1.083       .  S
C2254      C2255   1.408       .  A
C2255      C2256   1.400       .  A
C2255      H2259   1.083       .  S
C2256      H2260   1.082       .  S
C2261      C2262   1.409       .  A
C2261      C2266   1.402       .  A
C2261      H2271   1.082       .  S
C2262      C2267   1.498   1_554  S
C2262      C2263   1.409       .  A
C2263      C2264   1.403       .  A
C2263      H2268   1.083       .  S
C2264      C2265   1.404       .  A
C2264      H2269   1.083       .  S
C2265      C2266   1.403       .  A
C2266      H2270   1.084       .  S
C2267      C2272   1.410       .  A
C2267      C2276   1.407       .  A
C2272      C2273   1.402       .  A
C2272      H2277   1.082       .  S
C2273      C2274   1.406       .  A
C2273      H2278   1.083       .  S
C2274      C2275   1.408       .  A
C2275      C2276   1.401       .  A
C2275      H2279   1.083       .  S
C2276      H2280   1.083       .  S
C2281      C2282   1.404       .  A
C2281      C2286   1.399       .  A
C2281      H2291   1.083       .  S
C2282      C2287   1.490       .  S
C2282      C2283   1.409       .  A
C2283      C2284   1.401       .  A
C2283      H2288   1.083       .  S
C2284      C2285   1.404       .  A
C2284      H2289   1.083       .  S
C2285      C2286   1.409       .  A
C2286      H2290   1.083       .  S
C2287      C2292   1.410       .  A
C2287      C2296   1.404       .  A
C2292      C2293   1.403       .  A
C2292      H2297   1.082       .  S
C2293      C2294   1.403       .  A
C2293      H2298   1.083       .  S
C2294      C2295   1.405       .  A
C2295      C2296   1.396       .  A
C2295      H2299   1.083       .  S
C2296      H2300   1.083       .  S
C2301      C2302   1.404       .  A
C2301      C2306   1.396       .  A
C2301      H2311   1.083       .  S
C2302      C2307   1.490       .  S
C2302      C2303   1.409       .  A
C2303      C2304   1.401       .  A
C2303      H2308   1.083       .  S
C2304      C2305   1.405       .  A
C2304      H2309   1.083       .  S
C2305      C2306   1.407       .  A
C2306      H2310   1.083       .  S
C2307      C2312   1.407       .  A
C2307      C2316   1.408       .  A
C2312      C2313   1.399       .  A
C2312      H2317   1.083       .  S
C2313      C2314   1.403       .  A
C2313      H2318   1.083       .  S
C2314      C2315   1.400       .  A
C2315      C2316   1.398       .  A
C2315      H2319   1.083       .  S
C2316      H2320   1.082       .  S
C2321      C2322   1.405       .  A
C2321      C2326   1.400       .  A
C2321      H2331   1.083       .  S
C2322      C2327   1.498       .  S
C2322      C2323   1.411       .  A
C2323      C2324   1.404       .  A
C2323      H2328   1.082       .  S
C2324      C2325   1.406       .  A
C2324      H2329   1.083       .  S
C2325      C2326   1.409       .  A
C2326      H2330   1.083       .  S
C2327      C2332   1.411       .  A
C2327      C2336   1.406       .  A
C2332      C2333   1.404       .  A
C2332      H2337   1.082       .  S
C2333      C2334   1.403       .  A
C2333      H2338   1.083       .  S
C2334      C2335   1.408       .  A
C2335      C2336   1.400       .  A
C2335      H2339   1.083       .  S
C2336      H2340   1.083       .  S
C2341      C2342   1.406       .  A
C2341      C2346   1.403       .  A
C2341      H2351   1.083       .  S
C2342      C2347   1.496       .  S
C2342      C2343   1.409       .  A
C2343      C2344   1.401       .  A
C2343      H2348   1.082       .  S
C2344      C2345   1.405       .  A
C2344      H2349   1.083       .  S
C2345      C2346   1.409       .  A
C2346      H2350   1.083       .  S
C2347      C2352   1.410       .  A
C2347      C2356   1.407       .  A
C2352      C2353   1.404       .  A
C2352      H2357   1.082       .  S
C2353      C2354   1.403       .  A
C2353      H2358   1.083       .  S
C2354      C2355   1.405       .  A
C2355      C2356   1.398       .  A
C2355      H2359   1.083       .  S
C2356      H2360   1.083       .  S
C2361      C2362   1.410   1_556  A
C2361      C2366   1.406       .  A
C2361      H2371   1.083       .  S
C2362      C2367   1.492       .  S
C2362      C2363   1.404       .  A
C2363      C2364   1.396   1_554  A
C2363      H2368   1.083       .  S
C2364      C2365   1.406       .  A
C2364      H2369   1.084   1_655  S
C2365      C2366   1.403       .  A
C2366      H2370   1.083       .  S
C2367      C2372   1.404       .  A
C2367      C2376   1.409       .  A
C2372      C2373   1.401       .  A
C2372      H2377   1.083       .  S
C2373      C2374   1.411       .  A
C2373      H2378   1.083       .  S
C2374      C2375   1.405       .  A
C2375      C2376   1.402       .  A
C2375      H2379   1.083       .  S
C2376      H2380   1.083       .  S
C2381      C2382   1.406       .  A
C2381      C2386   1.400       .  A
C2381      H2391   1.083       .  S
C2382      C2387   1.485       .  S
C2382      C2383   1.402       .  A
C2383      C2384   1.402       .  A
C2383      H2388   1.083       .  S
C2384      C2385   1.411       .  A
C2384      H2389   1.083       .  S
C2385      C2386   1.405       .  A
C2386      H2390   1.083       .  S
C2387      C2392   1.401       .  A
C2387      C2396   1.408       .  A
C2392      C2393   1.396       .  A
C2392      H2397   1.083       .  S
C2393      C2394   1.408       .  A
C2393      H2398   1.084       .  S
C2394      C2395   1.405       .  A
C2395      C2396   1.407       .  A
C2395      H2399   1.083       .  S
C2396      H2400   1.083       .  S
C2401      C2402   1.409       .  A
C2401      C2406   1.405       .  A
C2401      H2411   1.083       .  S
C2402      C2407   1.489   1_455  S
C2402      C2403   1.403       .  A
C2403      C2404   1.396       .  A
C2403      H2408   1.083   1_455  S
C2404      C2405   1.407       .  A
C2404      H2409   1.083       .  S
C2405      C2406   1.404       .  A
C2406      H2410   1.083       .  S
C2407      C2412   1.402       .  A
C2407      C2416   1.408       .  A
C2412      C2413   1.400       .  A
C2412      H2417   1.083   1_655  S
C2413      C2414   1.409       .  A
C2413      H2418   1.083       .  S
C2414      C2415   1.406       .  A
C2415      C2416   1.402       .  A
C2415      H2419   1.083       .  S
C2416      H2420   1.083       .  S
C2421      C2422   1.403       .  A
C2421      C2426   1.396       .  A
C2421      H2431   1.083       .  S
C2422      C2427   1.488       .  S
C2422      C2423   1.409       .  A
C2423      C2424   1.406       .  A
C2423      H2428   1.083       .  S
C2424      C2425   1.405       .  A
C2424      H2429   1.083       .  S
C2425      C2426   1.406       .  A
C2426      H2430   1.084       .  S
C2427      C2432   1.408       .  A
C2427      C2436   1.403       .  A
C2432      C2433   1.401       .  A
C2432      H2437   1.083       .  S
C2433      C2434   1.404       .  A
C2433      H2438   1.083       .  S
C2434      C2435   1.410       .  A
C2435      C2436   1.402       .  A
C2435      H2439   1.083       .  S
C2436      H2440   1.083       .  S
C2441      C2442   1.403       .  A
C2441      C2446   1.400       .  A
C2441      H2451   1.083       .  S
C2442      C2447   1.486       .  S
C2442      C2443   1.408       .  A
C2443      C2444   1.399       .  A
C2443      H2448   1.083       .  S
C2444      C2445   1.403       .  A
C2444      H2449   1.083       .  S
C2445      C2446   1.409       .  A
C2446      H2450   1.083       .  S
C2447      C2452   1.408       .  A
C2447      C2456   1.404       .  A
C2452      C2453   1.403       .  A
C2452      H2457   1.083       .  S
C2453      C2454   1.403       .  A
C2453      H2458   1.083       .  S
C2454      C2455   1.403       .  A
C2455      C2456   1.396       .  A
C2455      H2459   1.083       .  S
C2456      H2460   1.083       .  S
C2461      C2462   1.406       .  A
C2461      C2466   1.397       .  A
C2461      H2471   1.083       .  S
C2462      C2467   1.486       .  S
C2462      C2463   1.404       .  A
C2463      C2464   1.404       .  A
C2463      H2468   1.083       .  S
C2464      C2465   1.410       .  A
C2464      H2469   1.083       .  S
C2465      C2466   1.405       .  A
C2466      H2470   1.083       .  S
C2467      C2472   1.402       .  A
C2467      C2476   1.408       .  A
C2472      C2473   1.394       .  A
C2472      H2477   1.083       .  S
C2473      C2474   1.407       .  A
C2473      H2478   1.083       .  S
C2474      C2475   1.406       .  A
C2475      C2476   1.406       .  A
C2475      H2479   1.083       .  S
C2476      H2480   1.083       .  S
C2481      C2482   1.405       .  A
C2481      C2486   1.400       .  A
C2481      H2491   1.083       .  S
C2482      C2487   1.494       .  S
C2482      C2483   1.410       .  A
C2483      C2484   1.402       .  A
C2483      H2488   1.082       .  S
C2484      C2485   1.405       .  A
C2484      H2489   1.083       .  S
C2485      C2486   1.409       .  A
C2486      H2490   1.083       .  S
C2487      C2492   1.410       .  A
C2487      C2496   1.406       .  A
C2492      C2493   1.402       .  A
C2492      H2497   1.082       .  S
C2493      C2494   1.402       .  A
C2493      H2498   1.083       .  S
C2494      C2495   1.405       .  A
C2495      C2496   1.399       .  A
C2495      H2499   1.083       .  S
C2496      H2500   1.083       .  S
C2501      C2502   1.409       .  A
C2501      C2506   1.402       .  A
C2501      H2511   1.082       .  S
C2502      C2507   1.504       .  S
C2502      C2503   1.412       .  A
C2503      C2504   1.402       .  A
C2503      H2508   1.082       .  S
C2504      C2505   1.403       .  A
C2504      H2509   1.083       .  S
C2505      C2506   1.407       .  A
C2506      H2510   1.083       .  S
C2507      C2512   1.415       .  A
C2507      C2516   1.407       .  A
C2512      C2513   1.409       .  A
C2512      H2517   1.082       .  S
C2513      C2514   1.404       .  A
C2513      H2518   1.083       .  S
C2514      C2515   1.406       .  A
C2515      C2516   1.395       .  A
C2515      H2519   1.084       .  S
C2516      H2520   1.081       .  S
C2521      C2522   1.409       .  A
C2521      C2526   1.405       .  A
C2521      H2531   1.082       .  S
C2522      C2527   1.498   1_455  S
C2522      C2523   1.409       .  A
C2523      C2524   1.398       .  A
C2523      H2528   1.082       .  S
C2524      C2525   1.402       .  A
C2524      H2529   1.084       .  S
C2525      C2526   1.405       .  A
C2526      H2530   1.083       .  S
C2527      C2532   1.405       .  A
C2527      C2536   1.412       .  A
C2532      C2533   1.395       .  A
C2532      H2537   1.082       .  S
C2533      C2534   1.407       .  A
C2533      H2538   1.083       .  S
C2534      C2535   1.407       .  A
C2535      C2536   1.408       .  A
C2535      H2539   1.083       .  S
C2536      H2540   1.082       .  S
C2541      C2542   1.409       .  A
C2541      C2546   1.399       .  A
C2541      H2551   1.083       .  S
C2542      C2547   1.493       .  S
C2542      C2543   1.405       .  A
C2543      C2544   1.401       .  A
C2543      H2548   1.083       .  S
C2544      C2545   1.409       .  A
C2544      H2549   1.083       .  S
C2545      C2546   1.404       .  A
C2546      H2550   1.083       .  S
C2547      C2552   1.409       .  A
C2547      C2556   1.406       .  A
C2552      C2553   1.404       .  A
C2552      H2557   1.083       .  S
C2553      C2554   1.403       .  A
C2553      H2558   1.083       .  S
C2554      C2555   1.403       .  A
C2555      C2556   1.397       .  A
C2555      H2559   1.083       .  S
C2556      H2560   1.083       .  S
C2561      C2562   1.405       .  A
C2561      C2566   1.400       .  A
C2561      H2571   1.083       .  S
C2562      C2567   1.494       .  S
C2562      C2563   1.410       .  A
C2563      C2564   1.402       .  A
C2563      H2568   1.083       .  S
C2564      C2565   1.405       .  A
C2564      H2569   1.083       .  S
C2565      C2566   1.409       .  A
C2566      H2570   1.083       .  S
C2567      C2572   1.411       .  A
C2567      C2576   1.406       .  A
C2572      C2573   1.403       .  A
C2572      H2577   1.083       .  S
C2573      C2574   1.402       .  A
C2573      H2578   1.083       .  S
C2574      C2575   1.406       .  A
C2575      C2576   1.398       .  A
C2575      H2579   1.083       .  S
C2576      H2580   1.083       .  S
C2581      C2582   1.406       .  A
C2581      C2586   1.399       .  A
C2581      H2591   1.083       .  S
C2582      C2587   1.493       .  S
C2582      C2583   1.410       .  A
C2583      C2584   1.402       .  A
C2583      H2588   1.083       .  S
C2584      C2585   1.402       .  A
C2584      H2589   1.083       .  S
C2585      C2586   1.404       .  A
C2586      H2590   1.083       .  S
C2587      C2592   1.410       .  A
C2587      C2596   1.404       .  A
C2592      C2593   1.403       .  A
C2592      H2597   1.083       .  S
C2593      C2594   1.405       .  A
C2593      H2598   1.083       .  S
C2594      C2595   1.410       .  A
C2595      C2596   1.399       .  A
C2595      H2599   1.083       .  S
C2596      H2600   1.083       .  S
C2601      C2602   1.405       .  A
C2601      C2606   1.397       .  A
C2601      H2611   1.082       .  S
C2602      C2607   1.493       .  S
C2602      C2603   1.410       .  A
C2603      C2604   1.403       .  A
C2603      H2608   1.083       .  S
C2604      C2605   1.406       .  A
C2604      H2609   1.083       .  S
C2605      C2606   1.407       .  A
C2606      H2610   1.083       .  S
C2607      C2612   1.408       .  A
C2607      C2616   1.409       .  A
C2612      C2613   1.400       .  A
C2612      H2617   1.082       .  S
C2613      C2614   1.403       .  A
C2613      H2618   1.084       .  S
C2614      C2615   1.401       .  A
C2615      C2616   1.399       .  A
C2615      H2619   1.083       .  S
C2616      H2620   1.083       .  S
C2621      C2622   1.409       .  A
C2621      C2626   1.402       .  A
C2621      H2631   1.083       .  S
C2622      C2627   1.488       .  S
C2622      C2623   1.402       .  A
C2623      C2624   1.397       .  A
C2623      H2628   1.083       .  S
C2624      C2625   1.409       .  A
C2624      H2629   1.083       .  S
C2625      C2626   1.405       .  A
C2626      H2630   1.083       .  S
C2627      C2632   1.404       .  A
C2627      C2636   1.409       .  A
C2632      C2633   1.398       .  A
C2632      H2637   1.083       .  S
C2633      C2634   1.405       .  A
C2633      H2638   1.083       .  S
C2634      C2635   1.402       .  A
C2635      C2636   1.402       .  A
C2635      H2639   1.083       .  S
C2636      H2640   1.083       .  S
C2641      C2642   1.407       .  A
C2641      C2646   1.402       .  A
C2641      H2651   1.083       .  S
C2642      C2647   1.495       .  S
C2642      C2643   1.408       .  A
C2643      C2644   1.401       .  A
C2643      H2648   1.083       .  S
C2644      C2645   1.406       .  A
C2644      H2649   1.083       .  S
C2645      C2646   1.409       .  A
C2646      H2650   1.083       .  S
C2647      C2652   1.408       .  A
C2647      C2656   1.409       .  A
C2652      C2653   1.401       .  A
C2652      H2657   1.083       .  S
C2653      C2654   1.404       .  A
C2653      H2658   1.083       .  S
C2654      C2655   1.402       .  A
C2655      C2656   1.401       .  A
C2655      H2659   1.083       .  S
C2656      H2660   1.082       .  S
C2661      C2662   1.410       .  A
C2661      C2666   1.404       .  A
C2661      H2671   1.083       .  S
C2662      C2667   1.493       .  S
C2662      C2663   1.403       .  A
C2663      C2664   1.398       .  A
C2663      H2668   1.083       .  S
C2664      C2665   1.410       .  A
C2664      H2669   1.083       .  S
C2665      C2666   1.406       .  A
C2666      H2670   1.083       .  S
C2667      C2672   1.406       .  A
C2667      C2676   1.410       .  A
C2672      C2673   1.400       .  A
C2672      H2677   1.083       .  S
C2673      C2674   1.404       .  A
C2673      H2678   1.083       .  S
C2674      C2675   1.402       .  A
C2675      C2676   1.401       .  A
C2675      H2679   1.083       .  S
C2676      H2680   1.083       .  S
C2681      C2682   1.408       .  A
C2681      C2686   1.399       .  A
C2681      H2691   1.082       .  S
C2682      C2687   1.507       .  S
C2682      C2683   1.414       .  A
C2683      C2684   1.408       .  A
C2683      H2688   1.081       .  S
C2684      C2685   1.404       .  A
C2684      H2689   1.083       .  S
C2685      C2686   1.408       .  A
C2686      H2690   1.083       .  S
C2687      C2692   1.412       .  A
C2687      C2696   1.410       .  A
C2692      C2693   1.403       .  A
C2692      H2697   1.081       .  S
C2693      C2694   1.405       .  A
C2693      H2698   1.084       .  S
C2694      C2695   1.406       .  A
C2695      C2696   1.404       .  A
C2695      H2699   1.083       .  S
C2696      H2700   1.082       .  S
C2701      C2702   1.410       .  A
C2701      C2706   1.403       .  A
C2701      H2711   1.082       .  S
C2702      C2707   1.497       .  S
C2702      C2703   1.405       .  A
C2703      C2704   1.400       .  A
C2703      H2708   1.083       .  S
C2704      C2705   1.409       .  A
C2704      H2709   1.083       .  S
C2705      C2706   1.405       .  A
C2706      H2710   1.083       .  S
C2707      C2712   1.412       .  A
C2707      C2716   1.407       .  A
C2712      C2713   1.404       .  A
C2712      H2717   1.082       .  S
C2713      C2714   1.402       .  A
C2713      H2718   1.084       .  S
C2714      C2715   1.405       .  A
C2715      C2716   1.399       .  A
C2715      H2719   1.083       .  S
C2716      H2720   1.083       .  S
