geometry optimzed in LAMMPS
_audit_creation_date              2020-11-30 
_audit_creation_method            'lammps2cif' 
_symmetry_space_group_name_H-M    'P1' 
_symmetry_Int_Tables_number       1 
_symmetry_cell_setting            triclinic 
loop_ 
_symmetry_equiv_pos_as_xyz 
  x,y,z 
_cell_length_a                    30.56277219 
_cell_length_b                    45.10505439179784 
_cell_length_c                    19.286878349229447 
_cell_angle_alpha                 89.74788747422727 
_cell_angle_beta                  89.97958511155592 
_cell_angle_gamma                 90.00345061050331 
loop_ 
_atom_site_label 
_atom_site_type_symbol 
_atom_site_fract_x 
_atom_site_fract_y 
_atom_site_fract_z 
_atom_site_charge 
C1          C  0.65191878  0.83818126  0.99266966     0.87400
C2          C  0.62261152  0.85372827  0.04532630    -0.52800
C3          C  0.63021952  0.88351903  0.05104708     0.10400
C4          C  0.66725896  0.89474950  0.00302530     0.21300
C5          C  0.64543509  0.85527108  0.92401909    -0.53500
C6          C  0.65354456  0.88505079  0.92950701     0.10500
C7          C  0.69869973  0.84546204  0.01494021    -0.53000
C8          C  0.70700118  0.87501299  0.01969616     0.11000
H9          H  0.59799526  0.84201272  0.07540095     0.15600
H10         H  0.67421785  0.91885875  0.00657590     0.01300
H11         H  0.63890533  0.84452159  0.87482293     0.15900
H12         H  0.72392976  0.82871096  0.02179544     0.15700
C13         C  0.60050558  0.83982525  0.47821363     0.87400
C14         C  0.62956445  0.85583134  0.42554797    -0.52800
C15         C  0.62017729  0.88537075  0.41771950     0.10400
C16         C  0.58172880  0.89579999  0.46356666     0.21300
C17         C  0.60498291  0.85762202  0.54582510    -0.53500
C18         C  0.59500603  0.88702311  0.53800244     0.10500
C19         C  0.55362645  0.84554583  0.45379714    -0.53000
C20         C  0.54357536  0.87479179  0.44669052     0.11000
H21         H  0.65531235  0.84459789  0.39714627     0.15600
H22         H  0.57328379  0.91964928  0.45834192     0.01300
H23         H  0.61203726  0.84756722  0.59585454     0.15900
H24         H  0.52961826  0.82802044  0.44690257     0.15700
C25         C  0.53651422  0.94168620  0.65294190     0.87400
C26         C  0.56448194  0.93820741  0.71834318    -0.52800
C27         C  0.60771364  0.93210776  0.70508050     0.10400
C28         C  0.61803898  0.92979194  0.62594166     0.21300
C29         C  0.55951217  0.96557268  0.60978584    -0.53500
C30         C  0.60231553  0.95955445  0.59499094     0.10500
C31         C  0.54287732  0.91309499  0.61222847    -0.53000
C32         C  0.58539911  0.90684577  0.59696022     0.11000
H33         H  0.55138338  0.94174187  0.76989891     0.15600
H34         H  0.65248029  0.92432435  0.61350163     0.01300
H35         H  0.54249343  0.98502776  0.59031190     0.15900
H36         H  0.51572340  0.90050093  0.59096994     0.15700
C37         C  0.71331765  0.93873520  0.81366057     0.87400
C38         C  0.68522507  0.93656505  0.74825679    -0.52800
C39         C  0.64173981  0.93125320  0.76140266     0.10400
C40         C  0.63134091  0.92821973  0.84053502     0.21300
C41         C  0.69136083  0.96259694  0.85779245    -0.53500
C42         C  0.64826253  0.95738564  0.87233022     0.10500
C43         C  0.70575473  0.90983160  0.85310002    -0.53000
C44         C  0.66304660  0.90428792  0.86879704     0.11000
H45         H  0.69846163  0.94050572  0.69687409     0.15600
H46         H  0.59666333  0.92328311  0.85260652     0.01300
H47         H  0.70926697  0.98152229  0.87768942     0.15900
H48         H  0.73246150  0.89662746  0.87399392     0.15700
In49       In  0.12317625  0.04116170  0.56635196     1.36900
C50         C  0.12256230  0.04029293  0.70269125     0.78500
O51         O  0.05578860  0.02403655  0.58589240    -0.59900
O52         O  0.08265162  0.01630068  0.48620026    -0.50800
C53         C  0.11713642  0.09576734  0.51268036     0.71200
O54         O  0.09703239  0.08755884  0.56618126    -0.45700
C55         C  0.20309987  0.01761487  0.55821364     0.75900
O56         O  0.12339885  0.06398468  0.66792111    -0.57500
O57         O  0.17002946  0.00479487  0.53317171    -0.47600
O58         O  0.12191130  0.01672571  0.66777936    -0.54000
C59         C  0.05056654  0.01309760  0.52681709     0.86100
O60         O  0.13893906  0.07563700  0.48329957    -0.55900
O61         O  0.19582926  0.04301190  0.58210884    -0.59200
In62       In  0.12120763  0.04254586  0.91421602     1.36900
C63         C  0.12218159  0.04055097  0.77792566     0.78500
O64         O  0.19229295  0.03382171  0.89735372    -0.59900
O65         O  0.16489864  0.01839535  0.99189384    -0.50800
C66         C  0.12361748  0.09679155  0.96724922     0.71200
O67         O  0.13148967  0.09118043  0.90477984    -0.45700
C68         C  0.04223660  0.01739369  0.92526993     0.75900
O69         O  0.11920158  0.06440607  0.81115976    -0.57500
O70         O  0.07705433  0.00302730  0.93516668    -0.47600
O71         O  0.12489027  0.01733587  0.81435063    -0.54000
C72         C  0.19842112  0.02065721  0.95393775     0.86100
O73         O  0.11452941  0.07448445  0.00449422    -0.55900
O74         O  0.04757309  0.04475351  0.91602283    -0.63200
C75         C  0.10667386  0.33782305  0.99726447     0.87400
C76         C  0.11196722  0.35627990  0.93051261    -0.52800
C77         C  0.10177906  0.38555833  0.93902694     0.10400
C78         C  0.08756924  0.39357052  0.01345700     0.21300
C79         C  0.13496146  0.35322881  0.05141415    -0.53500
C80         C  0.12547607  0.38264073  0.06018690     0.10500
C81         C  0.05942144  0.34320706  0.02041654    -0.53000
C82         C  0.04917151  0.37237119  0.02833222     0.11000
H83         H  0.11945449  0.34670736  0.88031283     0.15600
H84         H  0.07904032  0.41735892  0.01927318     0.01300
H85         H  0.16034740  0.34165869  0.08009343     0.15900
H86         H  0.03540271  0.32557229  0.02588085     0.15700
C87         C  0.15058384  0.33714028  0.49370646     0.87400
C88         C  0.14749806  0.35591027  0.56022135    -0.52800
C89         C  0.15893723  0.38499730  0.55019894     0.10400
C90         C  0.17217038  0.39243927  0.47490743     0.21300
C91         C  0.12205897  0.35319518  0.44047870    -0.53500
C92         C  0.13281476  0.38237094  0.43039846     0.10500
C93         C  0.19760705  0.34141834  0.46817696    -0.53000
C94         C  0.20915723  0.37031361  0.45893023     0.11000
H95         H  0.14005200  0.34669080  0.61097511     0.15600
H96         H  0.18187328  0.41598088  0.46792373     0.01300
H97         H  0.09557768  0.34219409  0.41333334     0.15900
H98         H  0.22062534  0.32323734  0.46212305     0.15700
C99         C  0.21885645  0.44002951  0.66349166     0.87400
C100        C  0.21188271  0.41150214  0.62275179    -0.52800
C101        C  0.16922169  0.40566201  0.60757017     0.10400
C102        C  0.13710231  0.42908984  0.63643676     0.21300
C103        C  0.19656324  0.46417824  0.62021400    -0.53500
C104        C  0.15359798  0.45867799  0.60524731     0.10500
C105        C  0.19083805  0.43696350  0.72877417    -0.53000
C106        C  0.14749074  0.43147779  0.71562046     0.11000
H107        H  0.23875327  0.39848718  0.60196303     0.15600
H108        H  0.10252266  0.42400613  0.62417503     0.01300
H109        H  0.21422884  0.48336737  0.60075942     0.15900
H110        H  0.20404342  0.44051607  0.78023767     0.15700
C111        C  0.04244019  0.44030751  0.82476019     0.87400
C112        C  0.04934255  0.41152508  0.86493086    -0.52800
C113        C  0.09195147  0.40558791  0.88018876     0.10400
C114        C  0.12419371  0.42894436  0.85136291     0.21300
C115        C  0.06506276  0.46406562  0.86826815    -0.53500
C116        C  0.10802358  0.45834638  0.88298876     0.10500
C117        C  0.07030621  0.43751902  0.75920383    -0.53000
C118        C  0.11363829  0.43168184  0.77219638     0.11000
H119        H  0.02241843  0.39855861  0.88598242     0.15600
H120        H  0.15871818  0.42364130  0.86364959     0.01300
H121        H  0.04750846  0.48311559  0.88829086     0.15900
H122        H  0.05705530  0.44127681  0.70776874     0.15700
In123      In  0.63513626  0.54241442  0.92845170     1.36900
C124        C  0.63469376  0.54093221  0.79183408     0.78500
O125        O  0.70862977  0.54463069  0.93290390    -0.59900
O126        O  0.67888835  0.50265259  0.94777298    -0.50800
C127        C  0.63319948  0.59641316  0.98314271     0.71200
O128        O  0.62173337  0.59075993  0.92211914    -0.45700
C129        C  0.55821757  0.51923858  0.96503111     0.75900
O130        O  0.64328263  0.56394084  0.82571656    -0.57500
O131        O  0.59257642  0.51378822  0.99925384    -0.47600
O132        O  0.62700562  0.51812071  0.82767989    -0.54000
C133        C  0.71380640  0.51717153  0.94043795     0.86100
O134        O  0.64453647  0.57410480  0.01888001    -0.55900
O135        O  0.56312934  0.53711615  0.91563330    -0.59200
In136      In  0.62788918  0.54439298  0.58049945     1.36900
C137        C  0.63294942  0.54137476  0.71664869     0.78500
O138        O  0.55449632  0.54664004  0.58549400    -0.59900
O139        O  0.58310228  0.50614610  0.55340092    -0.50800
C140        C  0.62574613  0.59849980  0.52422019     0.71200
O141        O  0.62580842  0.59362274  0.58828725    -0.45700
C142        C  0.70431869  0.52047865  0.54361878     0.75900
O143        O  0.63952727  0.56489412  0.68294810    -0.57500
O144        O  0.67012699  0.51683293  0.50801492    -0.47600
O145        O  0.62430960  0.51883679  0.68073387    -0.54000
C146        C  0.54874200  0.51998245  0.56921188     0.86100
O147        O  0.62650922  0.57553250  0.48694664    -0.55900
O148        O  0.69957714  0.53666077  0.59582776    -0.59200
C149        C  0.15176276  0.52285296  0.99311477     0.87400
C150        C  0.12381740  0.50717774  0.93897062    -0.52800
C151        C  0.13424112  0.47794888  0.92943851     0.10400
C152        C  0.17284426  0.46750503  0.97546130     0.21300
C153        C  0.14745469  0.50406368  0.05952517    -0.53500
C154        C  0.15869442  0.47500729  0.05027985     0.10500
C155        C  0.19904136  0.51839669  0.96923694    -0.53000
C156        C  0.21035339  0.48946667  0.96049100     0.11000
H157        H  0.09794593  0.51848516  0.91083299     0.15600
H158        H  0.18224656  0.44390051  0.96901828     0.01300
H159        H  0.13959088  0.51328121  0.10994650     0.15900
H160        H  0.22230443  0.53648208  0.96359787     0.15700
C161        C  0.10971609  0.52349004  0.49441716     0.87400
C162        C  0.13787446  0.50787457  0.54890973    -0.52800
C163        C  0.12746490  0.47860047  0.55903250     0.10400
C164        C  0.08889420  0.46813958  0.51339122     0.21300
C165        C  0.11403650  0.50466340  0.42843775    -0.53500
C166        C  0.10297352  0.47558581  0.43854179     0.10500
C167        C  0.06248756  0.51892240  0.51841874    -0.53000
C168        C  0.05132491  0.48999412  0.52768967     0.11000
H169        H  0.16387825  0.51916200  0.57655327     0.15600
H170        H  0.07951349  0.44453345  0.52026284     0.01300
H171        H  0.12149147  0.51388079  0.37767049     0.15900
H172        H  0.03901973  0.53692201  0.52309269     0.15700
C173        C  0.21770452  0.41984897  0.16450653     0.87400
C174        C  0.18979930  0.42291379  0.22994682    -0.52800
C175        C  0.14649469  0.42886571  0.21691289     0.10400
C176        C  0.13603032  0.43157565  0.13780463     0.21300
C177        C  0.19481444  0.39609728  0.12131839    -0.53500
C178        C  0.15193035  0.40205262  0.10653660     0.10500
C179        C  0.21111751  0.44857495  0.12389114    -0.53000
C180        C  0.16854755  0.45470225  0.10865399     0.11000
H181        H  0.20303334  0.41911372  0.28136719     0.15600
H182        H  0.10152746  0.43698459  0.12556083     0.01300
H183        H  0.21207592  0.37687268  0.10156028     0.15900
H184        H  0.23816489  0.46139655  0.10274981     0.15700
C185        C  0.04130592  0.42140728  0.32687447     0.87400
C186        C  0.06908454  0.42393443  0.26100337    -0.52800
C187        C  0.11266620  0.42909881  0.27355215     0.10400
C188        C  0.12350530  0.43161304  0.35244088     0.21300
C189        C  0.06338933  0.39723407  0.37045589    -0.53500
C190        C  0.10660696  0.40237582  0.38453752     0.10500
C191        C  0.04925568  0.45001311  0.36660344    -0.53000
C192        C  0.09210102  0.45537926  0.38106704     0.11000
H193        H  0.05555045  0.42048238  0.20971547     0.15600
H194        H  0.15820914  0.43647400  0.36427299     0.01300
H195        H  0.04544728  0.37832247  0.39073530     0.15900
H196        H  0.02284556  0.46340307  0.38755860     0.15700
In197      In  0.63166030  0.32134102  0.41910907     1.36900
C198        C  0.63166140  0.32068561  0.28236573     0.78500
O199        O  0.56471298  0.33889561  0.39812342    -0.59900
O200        O  0.58745162  0.34168990  0.50167693    -0.50800
C201        C  0.62856684  0.26667471  0.47193390     0.71200
O202        O  0.60864278  0.27436394  0.41783410    -0.45700
C203        C  0.70925323  0.34803099  0.43021217     0.75900
O204        O  0.63257252  0.29733923  0.31836593    -0.57500
O205        O  0.67426101  0.36049637  0.44877541    -0.47600
O206        O  0.63098222  0.34452724  0.31617765    -0.54000
C207        C  0.55678450  0.34652655  0.45926182     0.86100
O208        O  0.64910998  0.28726112  0.50191258    -0.55900
O209        O  0.70497177  0.32151958  0.41159995    -0.59200
In210      In  0.62901559  0.31808349  0.07082231     1.36900
C211        C  0.63099405  0.31997479  0.20704119     0.78500
O212        O  0.69630830  0.33536290  0.09110035    -0.59900
O213        O  0.67158931  0.34120565  0.98941706    -0.50800
C214        C  0.63380156  0.26379248  0.01752809     0.71200
O215        O  0.65039451  0.27074427  0.07472473    -0.45700
C216        C  0.54832657  0.34070957  0.06284992     0.75900
O217        O  0.63134218  0.29592228  0.17397009    -0.57500
O218        O  0.58105915  0.35396805  0.03760216    -0.47600
O219        O  0.62986651  0.34321517  0.17040919    -0.54000
C220        C  0.70301022  0.34494586  0.03095747     0.86100
O221        O  0.61586340  0.28487657  0.98505452    -0.55900
O222        O  0.55631511  0.31534863  0.08684646    -0.59200
C223        C  0.64988269  0.02473676  0.48965534     0.87400
C224        C  0.64427120  0.00736088  0.42167088    -0.52800
C225        C  0.65308236  0.97774020  0.42852264     0.10400
C226        C  0.66669329  0.96841926  0.50252905     0.21300
C227        C  0.62066872  0.00896957  0.54250123    -0.53500
C228        C  0.62909977  0.97927907  0.54953566     0.10500
C229        C  0.69674226  0.01813614  0.51301516    -0.53000
C230        C  0.70575044  0.98869560  0.51919099     0.11000
H231        H  0.63754881  0.01782292  0.37198083     0.15600
H232        H  0.67430807  0.94441678  0.50701073     0.01300
H233        H  0.59557670  0.02048367  0.57174539     0.15900
H234        H  0.72142110  0.03522373  0.52000045     0.15700
C235        C  0.60407433  0.02305162  0.97842937     0.87400
C236        C  0.60717038  0.00469031  0.04570855    -0.52800
C237        C  0.59576181  0.97563082  0.03703991     0.10400
C238        C  0.58269920  0.96769127  0.96219999     0.21300
C239        C  0.63275964  0.00685810  0.92596960    -0.53500
C240        C  0.62207727  0.97758935  0.91730314     0.10500
C241        C  0.55718473  0.01861478  0.95299024    -0.53000
C242        C  0.54570830  0.98969102  0.94525115     0.11000
H243        H  0.61447582  0.01417510  0.09605531     0.15600
H244        H  0.57308996  0.94409565  0.95636718     0.01300
H245        H  0.65919813  0.01780325  0.89834614     0.15900
H246        H  0.53399564  0.03671723  0.94683111     0.15700
C247        C  0.53640239  0.92066438  0.15184335     0.87400
C248        C  0.54282606  0.94907229  0.10983792    -0.52800
C249        C  0.58542388  0.95548451  0.09537643     0.10400
C250        C  0.61807649  0.93290302  0.12595840     0.21300
C251        C  0.56011495  0.89670568  0.11030174    -0.53500
C252        C  0.60294736  0.90298183  0.09594043     0.10500
C253        C  0.56391540  0.92464213  0.21768940    -0.53000
C254        C  0.60725327  0.93084413  0.20492584     0.11000
H255        H  0.51574871  0.96152095  0.08764845     0.15600
H256        H  0.65253504  0.93850114  0.11380443     0.01300
H257        H  0.54352529  0.87707666  0.09124433     0.15900
H258        H  0.55052601  0.92124725  0.26918606     0.15700
C259        C  0.71246713  0.92359296  0.31474018     0.87400
C260        C  0.70523748  0.95244912  0.35377378    -0.52800
C261        C  0.66257447  0.95830365  0.36874298     0.10400
C262        C  0.63052868  0.93470248  0.34045604     0.21300
C263        C  0.68987993  0.89980698  0.35876597    -0.53500
C264        C  0.64684258  0.90536569  0.37272548     0.10500
C265        C  0.68467827  0.92612102  0.24893141    -0.53000
C266        C  0.64116129  0.93169648  0.26151942     0.11000
H267        H  0.73205369  0.96542563  0.37486294     0.15600
H268        H  0.59587118  0.93986025  0.35214142     0.01300
H269        H  0.70728133  0.88066864  0.37908958     0.15900
H270        H  0.69808224  0.92211560  0.19777306     0.15700
In271      In  0.12457091  0.81883909  0.05845710     1.36900
C272        C  0.12372772  0.82052144  0.19473480     0.78500
O273        O  0.19798015  0.81628843  0.06555855    -0.59900
O274        O  0.17050615  0.85670243  0.03030696    -0.50800
C275        C  0.11795616  0.76379832  0.00995690     0.71200
O276        O  0.10316724  0.77169726  0.06771150    -0.45700
C277        C  0.05055047  0.84468709  0.01653334     0.75900
O278        O  0.12817391  0.79684050  0.16117320    -0.57500
O279        O  0.08280955  0.84176054  0.97617741    -0.47600
O280        O  0.11978442  0.84374628  0.15861736    -0.54000
C281        C  0.20444098  0.84283855  0.04854119     0.86100
O282        O  0.13493672  0.78434797  0.97423807    -0.55900
O283        O  0.05625578  0.83446894  0.07643815    -0.59200
In284      In  0.12134975  0.81873853  0.40629237     1.36900
C285        C  0.12293382  0.82051485  0.26999080     0.78500
O286        O  0.04778141  0.81483925  0.40520733    -0.59900
O287        O  0.07499655  0.85624062  0.43329285    -0.50800
C288        C  0.12518310  0.76434459  0.45983060     0.71200
O289        O  0.13024697  0.76995543  0.39656402    -0.45700
C290        C  0.19742827  0.84370587  0.44228152     0.75900
O291        O  0.12697146  0.79683288  0.30418053    -0.57500
O292        O  0.16557077  0.84241115  0.48383232    -0.47600
O293        O  0.11821241  0.84373477  0.30549354    -0.54000
C294        C  0.04098060  0.84153011  0.42014209     0.86100
O295        O  0.11851584  0.78669950  0.49761114    -0.55900
O296        O  0.19030305  0.83246568  0.38407076    -0.59200
C297        C  0.92092525  0.87717088  0.38117433     0.18000
C298        C  0.89649177  0.89594113  0.42413413    -0.11100
C299        C  0.85615355  0.90714074  0.40140678    -0.12000
C300        C  0.84008121  0.89986454  0.33545069     0.19600
C301        C  0.86472448  0.88138024  0.29227617    -0.14000
C302        C  0.90496060  0.87009812  0.31505335    -0.12300
C303        C  0.79707664  0.90975337  0.31447040     0.00500
C304        C  0.75926463  0.91679184  0.30609187    -0.32300
C305        C  0.96244464  0.86518973  0.40401214     0.01900
C306        C  0.99796771  0.85459671  0.41656472    -0.34000
H307        H  0.90838174  0.90169907  0.47522729     0.12900
H308        H  0.83715061  0.92109270  0.43565185     0.12800
H309        H  0.85259629  0.87537001  0.24149691     0.12600
H310        H  0.92353163  0.85568028  0.28118961     0.11700
C311        C  0.40750014  0.89784501  0.13574398     0.18000
C312        C  0.38323227  0.87852181  0.17797884    -0.11100
C313        C  0.34184707  0.86866163  0.15662327    -0.12000
C314        C  0.32441597  0.87793098  0.09272015     0.19600
C315        C  0.34843458  0.89758073  0.05099332    -0.14000
C316        C  0.38977054  0.90744741  0.07235969    -0.12300
C317        C  0.28229758  0.86688121  0.06989435     0.00500
C318        C  0.24689238  0.85657618  0.05526278    -0.32300
C319        C  0.45153138  0.90653820  0.15468945     0.01900
C320        C  0.48966243  0.91333176  0.16114817    -0.34000
H321        H  0.39654813  0.87071208  0.22680662     0.12900
H322        H  0.32368051  0.85352478  0.18955031     0.12800
H323        H  0.33546479  0.90501487  0.00160823     0.12600
H324        H  0.40822189  0.92220946  0.03891087     0.11700
C325        C  0.62395267  0.11306707  0.98570261     0.18000
C326        C  0.59373096  0.13004640  0.94786763    -0.11100
C327        C  0.59716572  0.16100267  0.94635453    -0.12000
C328        C  0.63089844  0.17517760  0.98255717     0.19600
C329        C  0.66117597  0.15818521  0.02024267    -0.14000
C330        C  0.65773827  0.12723043  0.02176165    -0.12300
C331        C  0.63295543  0.20712640  0.98476717     0.00500
C332        C  0.63378178  0.23358127  0.99407054    -0.32300
C333        C  0.62008815  0.08119099  0.98741013     0.01900
C334        C  0.61477535  0.05466433  0.98600624    -0.34000
H335        H  0.56739503  0.11936594  0.91988000     0.12900
H336        H  0.57328912  0.17387125  0.91763949     0.12800
H337        H  0.68713483  0.16888153  0.04905562     0.12600
H338        H  0.68123316  0.11438138  0.05130054     0.11700
C339        C  0.63450598  0.11539930  0.49139000     0.18000
C340        C  0.59709950  0.13061725  0.46882334    -0.11100
C341        C  0.59493275  0.16157286  0.47407610    -0.12000
C342        C  0.63010481  0.17753594  0.50208828     0.19600
C343        C  0.66731137  0.16227696  0.52524999    -0.14000
C344        C  0.66947703  0.13134324  0.51999854    -0.12300
C345        C  0.62927249  0.20958305  0.50227841     0.00500
C346        C  0.62905629  0.23619469  0.49444091    -0.32300
C347        C  0.63719043  0.08349900  0.48570300     0.01900
C348        C  0.64143075  0.05684250  0.48434804    -0.34000
H349        H  0.56980644  0.11860390  0.44671421     0.12900
H350        H  0.56612580  0.17308614  0.45536497     0.12800
H351        H  0.69488762  0.17431212  0.54640115     0.12600
H352        H  0.69856506  0.11987754  0.53775056     0.11700
C353        C  0.82751752  0.38516686  0.38729898     0.18000
C354        C  0.85331297  0.40319994  0.42990056    -0.11100
C355        C  0.89503329  0.41208530  0.40798076    -0.12000
C356        C  0.91123241  0.40309864  0.34327636     0.19600
C357        C  0.88505300  0.38563573  0.30003179    -0.14000
C358        C  0.84333581  0.37674818  0.32193254    -0.12300
C359        C  0.95573001  0.41018207  0.32406460     0.00500
C360        C  0.99429603  0.41547845  0.31755919    -0.32300
C361        C  0.78557619  0.37426564  0.41097515     0.01900
C362        C  0.75059985  0.36322305  0.42503503    -0.34000
H363        H  0.84156670  0.40991957  0.48047545     0.12900
H364        H  0.91506395  0.42540927  0.44211578     0.12800
H365        H  0.89721208  0.37836463  0.25015368     0.12600
H366        H  0.82374239  0.36282666  0.28843567     0.11700
C367        C  0.34612083  0.39659564  0.15048631     0.18000
C368        C  0.36707629  0.37382107  0.18733252    -0.11100
C369        C  0.40800058  0.36336953  0.16549574    -0.12000
C370        C  0.42821341  0.37550191  0.10644682     0.19600
C371        C  0.40747450  0.39853679  0.07014367    -0.14000
C372        C  0.36658458  0.40899717  0.09201119    -0.12300
C373        C  0.47011708  0.36423106  0.08348617     0.00500
C374        C  0.50559107  0.35401128  0.06911952    -0.32300
C375        C  0.30235676  0.40580674  0.16893824     0.01900
C376        C  0.26431471  0.41275158  0.17464835    -0.34000
H377        H  0.35149521  0.36381622  0.23216004     0.12900
H378        H  0.42366970  0.34561744  0.19422292     0.12800
H379        H  0.42267649  0.40821576  0.02459273     0.12600
H380        H  0.35058813  0.42641846  0.06263903     0.11700
C381        C  0.12548588  0.61368951  0.48784462     0.18000
C382        C  0.16062817  0.62946117  0.45912927    -0.11100
C383        C  0.16158170  0.66045615  0.46283145    -0.12000
C384        C  0.12746279  0.67586233  0.49538303     0.19600
C385        C  0.09243219  0.66007115  0.52440832    -0.14000
C386        C  0.09148401  0.62908540  0.52072155    -0.12300
C387        C  0.12702702  0.70784519  0.49438981     0.00500
C388        C  0.12630203  0.73431950  0.48495768    -0.32300
C389        C  0.12410199  0.58176276  0.48423022     0.01900
C390        C  0.11997377  0.55513447  0.48544086    -0.34000
H391        H  0.18708660  0.61784552  0.43358787     0.12900
H392        H  0.18861263  0.67242385  0.43952872     0.12800
H393        H  0.06563754  0.67170212  0.54903590     0.12600
H394        H  0.06412285  0.61714099  0.54312167     0.11700
C395        C  0.12148516  0.67454443  0.98515421     0.18000
C396        C  0.16284866  0.66117962  0.98310481    -0.11100
C397        C  0.16684991  0.63036535  0.98873935    -0.12000
C398        C  0.12953421  0.61262029  0.99671376     0.19600
C399        C  0.08807180  0.62591625  0.99859843    -0.14000
C400        C  0.08406177  0.65681064  0.99300372    -0.12300
C401        C  0.13414376  0.58082067  0.00124481     0.00500
C402        C  0.14063646  0.55439836  0.00102645    -0.32300
C403        C  0.11803229  0.70648679  0.98354958     0.01900
C404        C  0.11722260  0.73314426  0.98956993    -0.34000
H405        H  0.19205772  0.67461023  0.97776845     0.12900
H406        H  0.19906994  0.62037593  0.98699099     0.12800
H407        H  0.05894769  0.61244796  0.00452404     0.12600
H408        H  0.05190688  0.66685942  0.99537362     0.11700
C409        C  0.82872034  0.49010954  0.52042587     0.18000
C410        C  0.84701146  0.47369187  0.57520599    -0.11100
C411        C  0.89231617  0.46898791  0.57818310    -0.12000
C412        C  0.91957889  0.48071619  0.52646374     0.19600
C413        C  0.90111313  0.49631135  0.47061811    -0.14000
C414        C  0.85588690  0.50100808  0.46764064    -0.12300
C415        C  0.96658196  0.47900759  0.53282342     0.00500
C416        C  0.00591611  0.48156387  0.53438116    -0.32300
C417        C  0.78296035  0.49813640  0.52166289     0.01900
C418        C  0.74595835  0.50725926  0.52752518    -0.34000
H419        H  0.82645936  0.46534301  0.61668943     0.12900
H420        H  0.90616321  0.45701861  0.62176477     0.12800
H421        H  0.92182966  0.50562026  0.43045723     0.12600
H422        H  0.84228954  0.51392417  0.42534075     0.11700
C423        C  0.34211442  0.48101262  0.96054531     0.18000
C424        C  0.37064013  0.47205194  0.90765450    -0.11100
C425        C  0.41588993  0.47648562  0.91459711    -0.12000
C426        C  0.43285503  0.48980727  0.97457259     0.19600
C427        C  0.40432780  0.49825742  0.02775323    -0.14000
C428        C  0.35922351  0.49389311  0.02076258    -0.12300
C429        C  0.47884164  0.49708958  0.97932121     0.00500
C430        C  0.51623060  0.50587776  0.97840118    -0.32300
C431        C  0.29518679  0.47896104  0.95236332     0.01900
C432        C  0.25575628  0.48119774  0.95181443    -0.34000
H433        H  0.35789017  0.46221443  0.86070690     0.12900
H434        H  0.43748542  0.47014468  0.87265006     0.12800
H435        H  0.41684379  0.50886047  0.07395925     0.12600
H436        H  0.33756310  0.50112606  0.06181921     0.11700
C437        C  0.83309984  0.48218014  0.89540081     0.18000
C438        C  0.86188909  0.46737161  0.94023456    -0.11100
C439        C  0.90251646  0.45751510  0.91588301    -0.12000
C440        C  0.91466290  0.46233470  0.84654481     0.19600
C441        C  0.88570279  0.47684198  0.80149225    -0.14000
C442        C  0.84505027  0.48669802  0.82584722    -0.12300
C443        C  0.95778432  0.45371567  0.82361775     0.00500
C444        C  0.99574989  0.44714974  0.81531585    -0.32300
C445        C  0.79154071  0.49314218  0.92028978     0.01900
C446        C  0.75619435  0.50343023  0.93486146    -0.34000
H447        H  0.85313043  0.46367284  0.99402189     0.12900
H448        H  0.92472329  0.44646926  0.95136431     0.12800
H449        H  0.89473775  0.48087888  0.74795873     0.12600
H450        H  0.82309615  0.49809989  0.79059774     0.11700
C451        C  0.42953647  0.48368832  0.60957994     0.18000
C452        C  0.41208494  0.49207760  0.67390805    -0.11100
C453        C  0.37103595  0.48156299  0.69496519    -0.12000
C454        C  0.34731826  0.46247341  0.65192221     0.19600
C455        C  0.36502911  0.45379417  0.58806085    -0.14000
C456        C  0.40602267  0.46430946  0.56698288    -0.12300
C457        C  0.30352139  0.45342703  0.66998012     0.00500
C458        C  0.26540249  0.44669087  0.67452084    -0.32300
C459        C  0.47127533  0.49531866  0.58738771     0.01900
C460        C  0.50651785  0.50605098  0.57407557    -0.34000
H461        H  0.42995950  0.50704361  0.70735597     0.12900
H462        H  0.35749490  0.48874934  0.74399608     0.12800
H463        H  0.34674212  0.43934654  0.55395532     0.12600
H464        H  0.41909285  0.45761920  0.51722627     0.11700
C465        C  0.43170576  0.37490732  0.47519562     0.18000
C466        C  0.40391957  0.37150689  0.53245357    -0.11100
C467        C  0.35864521  0.37491127  0.52459612    -0.12000
C468        C  0.34075858  0.38176604  0.45948796     0.19600
C469        C  0.36863862  0.38610600  0.40262227    -0.14000
C470        C  0.41395930  0.38268181  0.41047361    -0.12300
C471        C  0.29378950  0.38186757  0.45081690     0.00500
C472        C  0.25453252  0.37858949  0.44991354    -0.32300
C473        C  0.47764719  0.36767459  0.48079901     0.01900
C474        C  0.51508191  0.35913767  0.47742292    -0.34000
H475        H  0.41707209  0.36530692  0.58260443     0.12900
H476        H  0.33745844  0.37138264  0.56891978     0.12800
H477        H  0.35530517  0.39125943  0.35195784     0.12600
H478        H  0.43500860  0.38514646  0.36560370     0.11700
C479        C  0.82706120  0.37569098  0.01114364     0.18000
C480        C  0.84441467  0.38869170  0.07119250    -0.11100
C481        C  0.88969140  0.39295248  0.07773336    -0.12000
C482        C  0.91789953  0.38422062  0.02424725     0.19600
C483        C  0.90038098  0.37215968  0.96336568    -0.14000
C484        C  0.85519633  0.36787643  0.95686000    -0.12300
C485        C  0.96484305  0.38503236  0.03322016     0.00500
C486        C  0.00406620  0.38162559  0.03524204    -0.32300
C487        C  0.78125936  0.36768987  0.00828893     0.01900
C488        C  0.74417915  0.35848862  0.01281323    -0.34000
H489        H  0.82312765  0.39460288  0.11386714     0.12900
H490        H  0.90274304  0.40215680  0.12519628     0.12800
H491        H  0.92180928  0.36516321  0.92177727     0.12600
H492        H  0.84238331  0.35758156  0.91047359     0.11700
C493        C  0.41422174  0.98244259  0.95343767     0.18000
C494        C  0.38578448  0.97915147  0.89713524    -0.11100
C495        C  0.34102289  0.98471367  0.90516682    -0.12000
C496        C  0.32431790  0.99351339  0.96964768     0.19600
C497        C  0.35266379  0.99629920  0.02636704    -0.14000
C498        C  0.39749308  0.99079292  0.01824899    -0.12300
C499        C  0.27862396  0.00128964  0.97565580     0.00500
C500        C  0.24092557  0.00923195  0.97189038    -0.32300
C501        C  0.46084631  0.97981283  0.94373559     0.01900
C502        C  0.50016919  0.98163615  0.93993791    -0.34000
H503        H  0.39834144  0.97288583  0.84679772     0.12900
H504        H  0.31956333  0.98270984  0.86073878     0.12800
H505        H  0.34030383  0.00329808  0.07633308     0.12600
H506        H  0.41923542  0.99367111  0.06206170     0.11700
C507        C  0.12279098  0.24749892  0.99358810     0.18000
C508        C  0.16291614  0.23241574  0.99330512    -0.11100
C509        C  0.16382462  0.20137357  0.99747005    -0.12000
C510        C  0.12463212  0.18528092  0.00226034     0.19600
C511        C  0.08461754  0.20042327  0.00300650    -0.14000
C512        C  0.08371018  0.23138739  0.99880655    -0.12300
C513        C  0.12507455  0.15327693  0.00120497     0.00500
C514        C  0.12444048  0.12680596  0.99201269    -0.32300
C515        C  0.12121730  0.27945075  0.98974380     0.01900
C516        C  0.11652500  0.30604947  0.98999271    -0.34000
H517        H  0.19337564  0.24459871  0.98949996     0.12900
H518        H  0.19497487  0.18993088  0.99609534     0.12800
H519        H  0.05408825  0.18827496  0.00593745     0.12600
H520        H  0.05249477  0.24276883  0.99927958     0.11700
C521        C  0.92738639  0.98191272  0.50447389     0.18000
C522        C  0.89974010  0.99241341  0.45195536    -0.11100
C523        C  0.85440941  0.98896070  0.45781496    -0.12000
C524        C  0.83630714  0.97502377  0.51628160     0.19600
C525        C  0.86396627  0.96368101  0.56791706    -0.14000
C526        C  0.90940876  0.96713318  0.56202977    -0.12300
C527        C  0.78939800  0.97461289  0.52472622     0.00500
C528        C  0.75032700  0.97853108  0.52637811    -0.32300
C529        C  0.97332880  0.98934453  0.50316957     0.01900
C530        C  0.01018575  0.99873801  0.50855104    -0.34000
H531        H  0.91309926  0.00417454  0.40765402     0.12900
H532        H  0.83337247  0.99796381  0.41772066     0.12800
H533        H  0.85040350  0.95302041  0.61355094     0.12600
H534        H  0.93036796  0.95921875  0.60344079     0.11700
C535        C  0.12694067  0.24723124  0.49387052     0.18000
C536        C  0.14959869  0.23163477  0.44224753    -0.11100
C537        C  0.14566904  0.20072458  0.43742172    -0.12000
C538        C  0.11894121  0.18513142  0.48409240     0.19600
C539        C  0.09571712  0.20079091  0.53494478    -0.14000
C540        C  0.09966683  0.23168637  0.53979521    -0.12300
C541        C  0.11738240  0.15303945  0.48319930     0.00500
C542        C  0.11692911  0.12637218  0.49063282    -0.32300
C543        C  0.13248835  0.27900629  0.50017779     0.01900
C544        C  0.13923682  0.30546559  0.50148948    -0.34000
H545        H  0.17078068  0.24332436  0.40633081     0.12900
H546        H  0.16402759  0.18897122  0.39814155     0.12800
H547        H  0.07514488  0.18905261  0.57166335     0.12600
H548        H  0.08193575  0.24337344  0.57989713     0.11700
C549        C  0.92301629  0.98175614  0.88008096     0.18000
C550        C  0.89601191  0.96516357  0.92436135    -0.11100
C551        C  0.85532287  0.95497382  0.90101340    -0.12000
C552        C  0.84138340  0.96104568  0.83310564     0.19600
C553        C  0.86853001  0.97737673  0.78855357    -0.14000
C554        C  0.90918449  0.98768497  0.81197207    -0.12300
C555        C  0.79814419  0.95197528  0.81150838     0.00500
C556        C  0.76014757  0.94524845  0.80398623    -0.32300
C557        C  0.96462773  0.99306392  0.90420579     0.01900
C558        C  0.99988549  0.00353590  0.91889155    -0.34000
H559        H  0.90614813  0.96038662  0.97706328     0.12900
H560        H  0.83436481  0.94277097  0.93627761     0.12800
H561        H  0.85805675  0.98249000  0.73618533     0.12600
H562        H  0.92968088  0.00049863  0.77714569     0.11700
C563        C  0.32382247  0.98326595  0.59900575     0.18000
C564        C  0.34725769  0.96333792  0.55761321    -0.11100
C565        C  0.38902997  0.95389780  0.57782522    -0.12000
C566        C  0.40769885  0.96421834  0.63964016     0.19600
C567        C  0.38418410  0.98400954  0.68126321    -0.14000
C568        C  0.34233246  0.99339790  0.66117122    -0.12300
C569        C  0.45184424  0.95566204  0.65760142     0.00500
C570        C  0.48995840  0.94887219  0.66315463    -0.32300
C571        C  0.28122097  0.99381087  0.57748808     0.01900
C572        C  0.24554157  0.00390441  0.56396414    -0.34000
H573        H  0.33346494  0.95532750  0.50945975     0.12900
H574        H  0.40705244  0.93886485  0.54474519     0.12800
H575        H  0.39843575  0.99254136  0.72853837     0.12600
H576        H  0.32463761  0.00884675  0.69366253     0.11700
C577        C  0.62278425  0.68692023  0.48604993     0.18000
C578        C  0.61445141  0.70233303  0.42417572    -0.11100
C579        C  0.61216502  0.73339695  0.42406603    -0.12000
C580        C  0.61821413  0.74925959  0.48579727     0.19600
C581        C  0.62667671  0.73382305  0.54754381    -0.14000
C582        C  0.62896914  0.70281322  0.54765280    -0.12300
C583        C  0.61470179  0.78123993  0.48608660     0.00500
C584        C  0.60992059  0.80786860  0.48478791    -0.32300
C585        C  0.62408661  0.65486927  0.48758943     0.01900
C586        C  0.62490070  0.62839262  0.49770800    -0.34000
H587        H  0.60944683  0.69037222  0.37624621     0.12900
H588        H  0.60540958  0.74502581  0.37598247     0.12800
H589        H  0.63122656  0.74573533  0.59566078     0.12600
H590        H  0.63527358  0.69120416  0.59592612     0.11700
C591        C  0.41244371  0.88484281  0.44740030     0.18000
C592        C  0.38454909  0.89153180  0.39184322    -0.11100
C593        C  0.33951415  0.88612609  0.39754887    -0.12000
C594        C  0.32209554  0.87403975  0.45884558     0.19600
C595        C  0.34990744  0.86804883  0.51489760    -0.14000
C596        C  0.39487299  0.87343511  0.50918572    -0.12300
C597        C  0.27647723  0.86565002  0.46202061     0.00500
C598        C  0.23928212  0.85663789  0.45839497    -0.32300
C599        C  0.45933601  0.88688419  0.43975033     0.01900
C600        C  0.49863168  0.88408120  0.43875009    -0.34000
H601        H  0.39771467  0.90010672  0.34361184     0.12900
H602        H  0.31847247  0.89060553  0.35352639     0.12800
H603        H  0.33703214  0.85847538  0.56230931     0.12600
H604        H  0.41612687  0.86793098  0.55230633     0.11700
C605        C  0.63893311  0.74734602  0.00035732     0.18000
C606        C  0.67348706  0.73184023  0.03184365    -0.11100
C607        C  0.67178584  0.70088720  0.03829283    -0.12000
C608        C  0.63543366  0.68520506  0.01355265     0.19600
C609        C  0.60069976  0.70075482  0.98274965    -0.14000
C610        C  0.60240663  0.73168829  0.97628476    -0.12300
C611        C  0.63491774  0.65314473  0.01506040     0.00500
C612        C  0.63429113  0.62654873  0.00741330    -0.32300
C613        C  0.64111252  0.77922724  0.99271570     0.01900
C614        C  0.64447566  0.80592245  0.98923348    -0.34000
H615        H  0.70191430  0.74364696  0.05078763     0.12900
H616        H  0.69904720  0.68917654  0.06160885     0.12800
H617        H  0.57257813  0.68892255  0.96278916     0.12600
H618        H  0.57545699  0.74334756  0.95194366     0.11700
C619        C  0.83738270  0.88729542  0.01013141     0.18000
C620        C  0.85391641  0.87458169  0.94926489    -0.11100
C621        C  0.89884928  0.86943384  0.94205151    -0.12000
C622        C  0.92762934  0.87701756  0.99562703     0.19600
C623        C  0.91126156  0.89064521  0.05558373    -0.14000
C624        C  0.86626647  0.89575690  0.06285469    -0.12300
C625        C  0.97299821  0.86811728  0.99246428     0.00500
C626        C  0.00971568  0.85837977  0.99748328    -0.32300
C627        C  0.79065603  0.88892051  0.02024658     0.01900
C628        C  0.75153648  0.88551921  0.02407827    -0.34000
H629        H  0.83189124  0.86775759  0.90830846     0.12900
H630        H  0.91092907  0.85864590  0.89577062     0.12800
H631        H  0.93308147  0.89635861  0.09771965     0.12600
H632        H  0.85392182  0.90536338  0.11037622     0.11700
loop_ 
_geom_bond_atom_site_label_1 
_geom_bond_atom_site_label_2 
_geom_bond_distance 
_geom_bond_site_symmetry_2 
_ccdc_geom_bond_type 
C1            C2   1.527   1_556  S
C1            C7   1.529   1_556  S
C1            C5   1.542       .  S
C1          C614   1.474       .  S
C2            H9   1.086       .  S
C2            C3   1.369       .  D
C3            C4   1.546       .  S
C3          C252   1.490       .  S
C4            C8   1.539       .  S
C4            C6   1.544   1_554  S
C4           H10   1.110       .  S
C5           H11   1.086       .  S
C5            C6   1.370       .  D
C6           C44   1.483       .  S
C7           H12   1.087       .  S
C7            C8   1.360       .  D
C8          C628   1.444       .  S
C13          C14   1.528       .  S
C13          C19   1.530       .  S
C13          C17   1.540       .  S
C13         C584   1.475       .  S
C14          H21   1.085       .  S
C14          C15   1.371       .  D
C15          C16   1.545       .  S
C15         C264   1.491       .  S
C16          C20   1.538       .  S
C16          C18   1.542       .  S
C16          H22   1.110       .  S
C17          H23   1.086       .  S
C17          C18   1.368       .  D
C18          C32   1.479       .  S
C19          H24   1.087       .  S
C19          C20   1.361       .  D
C20         C600   1.444       .  S
C25          C26   1.531       .  S
C25          C31   1.525       .  S
C25          C29   1.529       .  S
C25         C570   1.473       .  S
C26          H33   1.084       .  S
C26          C27   1.374       .  D
C27          C28   1.562       .  S
C27          C39   1.504       .  S
C28          C32   1.544       .  S
C28          C30   1.544       .  S
C28          H34   1.108       .  S
C29          H35   1.086       .  S
C29          C30   1.366       .  D
C30         C228   1.491       .  S
C31          H36   1.087       .  S
C31          C32   1.362       .  D
C37          C38   1.530       .  S
C37          C43   1.524       .  S
C37          C41   1.530       .  S
C37         C556   1.473       .  S
C38          H45   1.084       .  S
C38          C39   1.374       .  D
C39          C40   1.564       .  S
C40          C44   1.548       .  S
C40          C42   1.543       .  S
C40          H46   1.107       .  S
C41          H47   1.086       .  S
C41          C42   1.367       .  D
C42         C240   1.493       .  S
C43          H48   1.087       .  S
C43          C44   1.363       .  D
In49         O51   2.231       .  S
In49         O52   2.280       .  S
In49         O60   2.279       .  S
In49         O54   2.240       .  S
In49         O56   2.217       .  S
In49         O57   2.271       .  S
In49         O58   2.241       .  S
In49         O61   2.243       .  S
C50          O56   1.259       .  A
C50          O58   1.261       .  A
C50          C63   1.451       .  S
O51          C59   1.254       .  A
O52          C59   1.263       .  A
C53          O60   1.262       .  A
C53          O54   1.255       .  A
C53         C542   1.443       .  S
C55          O57   1.262       .  A
C55          O61   1.256       .  A
C55         C572   1.441       .  S
C59         C530   1.438   1_545  S
In62         O64   2.232       .  S
In62         O65   2.281       .  S
In62         O73   2.274   1_556  S
In62         O67   2.223       .  S
In62         O69   2.216       .  S
In62         O70   2.270       .  S
In62         O71   2.244       .  S
In62         O74   2.253       .  S
C63          O69   1.258       .  A
C63          O71   1.261       .  A
O64          C72   1.254       .  A
O65          C72   1.263       .  A
C66          O73   1.265   1_556  A
C66          O67   1.255       .  A
C66         C514   1.438       .  S
C68          O70   1.260       .  A
C68          O74   1.257       .  A
C68         C558   1.443   1_455  S
C72         C500   1.439       .  S
C75          C76   1.539       .  S
C75          C81   1.531   1_556  S
C75          C79   1.526   1_556  S
C75         C516   1.472       .  S
C76          H83   1.086       .  S
C76          C77   1.367       .  D
C77          C78   1.544   1_556  S
C77         C113   1.478       .  S
C78          C82   1.540       .  S
C78          C80   1.547       .  S
C78          H84   1.110       .  S
C79          H85   1.085       .  S
C79          C80   1.369       .  D
C80         C178   1.492       .  S
C81          H86   1.087       .  S
C81          C82   1.361       .  D
C82         C486   1.447       .  S
C87          C88   1.543       .  S
C87          C93   1.531       .  S
C87          C91   1.527       .  S
C87         C544   1.477       .  S
C88          H95   1.086       .  S
C88          C89   1.371       .  D
C89          C90   1.543       .  S
C89         C101   1.484       .  S
C90          C94   1.540       .  S
C90          C92   1.547       .  S
C90          H96   1.110       .  S
C91          H97   1.085       .  S
C91          C92   1.369       .  D
C92         C190   1.494       .  S
C93          H98   1.087       .  S
C93          C94   1.361       .  D
C94         C472   1.446       .  S
C99         C100   1.526       .  S
C99         C105   1.528       .  S
C99         C103   1.530       .  S
C99         C458   1.470       .  S
C100        H107   1.087       .  S
C100        C101   1.362       .  D
C101        C102   1.548       .  S
C102        C106   1.564       .  S
C102        C104   1.546       .  S
C102        H108   1.107       .  S
C103        H109   1.086       .  S
C103        C104   1.368       .  D
C104        C163   1.494       .  S
C105        H110   1.084       .  S
C105        C106   1.372       .  D
C106        C118   1.503       .  S
C111        C112   1.524       .  S
C111        C117   1.530       .  S
C111        C115   1.529       .  S
C111        C444   1.471   1_455  S
C112        H119   1.087       .  S
C112        C113   1.362       .  D
C113        C114   1.544       .  S
C114        C118   1.565       .  S
C114        C116   1.543       .  S
C114        H120   1.107       .  S
C115        H121   1.085       .  S
C115        C116   1.368       .  D
C116        C151   1.495       .  S
C117        H122   1.084       .  S
C117        C118   1.373       .  D
In123       O125   2.250       .  S
In123       O126   2.267       .  S
In123       O134   2.278   1_556  S
In123       O128   2.222       .  S
In123       O130   2.217       .  S
In123       O131   2.282       .  S
In123       O132   2.249       .  S
In123       O135   2.228       .  S
C124        O130   1.257       .  A
C124        O132   1.259       .  A
C124        C137   1.451       .  S
O125        C133   1.256       .  A
O126        C133   1.260       .  A
C127        O134   1.266   1_556  A
C127        O128   1.255       .  A
C127        C612   1.440   1_556  S
C129        O131   1.264       .  A
C129        O135   1.254       .  A
C129        C430   1.440       .  S
C133        C446   1.440       .  S
In136       O138   2.247       .  S
In136       O139   2.265       .  S
In136       O147   2.282       .  S
In136       O141   2.227       .  S
In136       O143   2.214       .  S
In136       O144   2.276       .  S
In136       O145   2.249       .  S
In136       O148   2.238       .  S
C137        O143   1.258       .  A
C137        O145   1.261       .  A
O138        C146   1.256       .  A
O139        C146   1.260       .  A
C140        O147   1.264       .  A
C140        O141   1.254       .  A
C140        C586   1.440       .  S
C142        O144   1.262       .  A
C142        O148   1.255       .  A
C142        C418   1.440       .  S
C146        C460   1.438       .  S
C149        C150   1.525       .  S
C149        C155   1.530       .  S
C149        C153   1.538   1_556  S
C149        C402   1.472   1_556  S
C150        H157   1.085       .  S
C150        C151   1.369       .  D
C151        C152   1.549       .  S
C152        C156   1.541       .  S
C152        C154   1.545   1_556  S
C152        H158   1.110       .  S
C153        H159   1.086       .  S
C153        C154   1.367       .  D
C154        C180   1.479       .  S
C155        H160   1.087       .  S
C155        C156   1.361       .  D
C156        C432   1.447       .  S
C161        C162   1.528       .  S
C161        C167   1.529       .  S
C161        C165   1.539       .  S
C161        C390   1.471       .  S
C162        H169   1.085       .  S
C162        C163   1.371       .  D
C163        C164   1.546       .  S
C164        C168   1.539       .  S
C164        C166   1.542       .  S
C164        H170   1.110       .  S
C165        H171   1.086       .  S
C165        C166   1.368       .  D
C166        C192   1.476       .  S
C167        H172   1.087       .  S
C167        C168   1.360       .  D
C168        C416   1.445       .  S
C173        C174   1.530       .  S
C173        C179   1.525       .  S
C173        C177   1.529       .  S
C173        C376   1.473       .  S
C174        H181   1.084       .  S
C174        C175   1.374       .  D
C175        C176   1.563       .  S
C175        C187   1.504       .  S
C176        C180   1.545       .  S
C176        C178   1.543       .  S
C176        H182   1.108       .  S
C177        H183   1.085       .  S
C177        C178   1.368       .  D
C179        H184   1.087       .  S
C179        C180   1.362       .  D
C185        C186   1.532       .  S
C185        C191   1.523       .  S
C185        C189   1.531       .  S
C185        C360   1.473   1_455  S
C186        H193   1.084       .  S
C186        C187   1.374       .  D
C187        C188   1.562       .  S
C188        C192   1.543       .  S
C188        C190   1.543       .  S
C188        H194   1.107       .  S
C189        H195   1.085       .  S
C189        C190   1.369       .  D
C191        H196   1.087       .  S
C191        C192   1.361       .  D
In197       O199   2.231       .  S
In197       O200   2.284       .  S
In197       O208   2.275       .  S
In197       O202   2.233       .  S
In197       O204   2.229       .  S
In197       O205   2.270       .  S
In197       O206   2.240       .  S
In197       O209   2.245       .  S
C198        O204   1.259       .  A
C198        O206   1.260       .  A
C198        C211   1.453       .  S
O199        C207   1.253       .  A
O200        C207   1.263       .  A
C201        O208   1.263       .  A
C201        O202   1.256       .  A
C201        C346   1.440       .  S
C203        O205   1.261       .  A
C203        O209   1.257       .  A
C203        C362   1.441       .  S
C207        C474   1.440       .  S
In210       O212   2.235       .  S
In210       O213   2.287   1_554  S
In210       O221   2.272   1_554  S
In210       O215   2.234       .  S
In210       O217   2.224       .  S
In210       O218   2.274       .  S
In210       O219   2.235       .  S
In210       O222   2.247       .  S
C211        O217   1.261       .  A
C211        O219   1.262       .  A
O212        C220   1.253       .  A
O213        C220   1.263   1_556  A
C214        O221   1.262   1_554  A
C214        O215   1.255       .  A
C214        C332   1.438   1_554  S
C216        O218   1.262       .  A
C216        O222   1.256       .  A
C216        C374   1.443       .  S
C220        C488   1.441       .  S
C223        C224   1.540       .  S
C223        C229   1.530       .  S
C223        C227   1.528       .  S
C223        C348   1.474       .  S
C224        H231   1.086       .  S
C224        C225   1.369   1_545  D
C225        C226   1.543       .  S
C225        C261   1.480       .  S
C226        C230   1.539       .  S
C226        C228   1.544       .  S
C226        H232   1.110       .  S
C227        H233   1.085       .  S
C227        C228   1.370   1_545  D
C229        H234   1.087       .  S
C229        C230   1.361   1_545  D
C230        C528   1.444       .  S
C235        C236   1.539   1_556  S
C235        C241   1.528       .  S
C235        C239   1.527       .  S
C235        C334   1.471       .  S
C236        H243   1.086       .  S
C236        C237   1.367   1_545  D
C237        C238   1.541   1_554  S
C237        C249   1.477       .  S
C238        C242   1.539       .  S
C238        C240   1.547       .  S
C238        H244   1.110       .  S
C239        H245   1.085       .  S
C239        C240   1.371   1_545  D
C241        H246   1.087       .  S
C241        C242   1.360   1_545  D
C242        C502   1.442       .  S
C247        C248   1.526       .  S
C247        C253   1.535       .  S
C247        C251   1.530       .  S
C247        C320   1.477       .  S
C248        H255   1.087       .  S
C248        C249   1.362       .  D
C249        C250   1.542       .  S
C250        C254   1.561       .  S
C250        C252   1.542       .  S
C250        H256   1.108       .  S
C251        H257   1.086       .  S
C251        C252   1.367       .  D
C253        H258   1.084       .  S
C253        C254   1.376       .  D
C254        C266   1.506       .  S
C259        C260   1.523       .  S
C259        C265   1.531       .  S
C259        C263   1.530       .  S
C259        C304   1.472       .  S
C260        H267   1.087       .  S
C260        C261   1.362       .  D
C261        C262   1.548       .  S
C262        C266   1.563       .  S
C262        C264   1.543       .  S
C262        H268   1.108       .  S
C263        H269   1.086       .  S
C263        C264   1.366       .  D
C265        H270   1.084       .  S
C265        C266   1.375       .  D
In271       O273   2.251       .  S
In271       O274   2.275       .  S
In271       O282   2.276   1_554  S
In271       O276   2.231       .  S
In271       O278   2.215       .  S
In271       O279   2.281   1_554  S
In271       O280   2.244       .  S
In271       O283   2.231       .  S
C272        O278   1.259       .  A
C272        O280   1.261       .  A
C272        C285   1.452       .  S
O273        C281   1.256       .  A
O274        C281   1.260       .  A
C275        O282   1.264   1_554  A
C275        O276   1.255       .  A
C275        C404   1.439   1_554  S
C277        O279   1.263   1_554  A
C277        O283   1.254       .  A
C277        C626   1.440   1_554  S
C281        C318   1.444       .  S
In284       O286   2.255       .  S
In284       O287   2.269       .  S
In284       O295   2.275       .  S
In284       O289   2.226       .  S
In284       O291   2.214       .  S
In284       O292   2.284       .  S
In284       O293   2.245       .  S
In284       O296   2.237       .  S
C285        O291   1.259       .  A
C285        O293   1.262       .  A
O286        C294   1.256       .  A
O287        C294   1.260       .  A
C288        O295   1.263       .  A
C288        O289   1.255       .  A
C288        C388   1.437       .  S
C290        O292   1.262       .  A
C290        O296   1.253       .  A
C290        C598   1.440       .  S
C294        C306   1.442   1_455  S
C297        C305   1.447       .  S
C297        C298   1.402       .  A
C297        C302   1.404       .  A
C298        C299   1.402       .  A
C298        H307   1.083       .  S
C299        C300   1.404       .  A
C299        H308   1.083       .  S
C300        C303   1.445       .  S
C300        C301   1.401       .  A
C301        C302   1.401       .  A
C301        H309   1.083       .  S
C302        H310   1.084       .  S
C303        C304   1.209       .  T
C305        C306   1.210       .  T
C311        C319   1.449       .  S
C311        C312   1.402       .  A
C311        C316   1.404       .  A
C312        C313   1.403       .  A
C312        H321   1.083       .  S
C313        C314   1.405       .  A
C313        H322   1.083       .  S
C314        C317   1.450       .  S
C314        C315   1.402       .  A
C315        C316   1.402       .  A
C315        H323   1.084       .  S
C316        H324   1.083       .  S
C317        C318   1.212       .  T
C319        C320   1.212       .  T
C325        C333   1.443       .  S
C325        C326   1.403       .  A
C325        C330   1.401   1_556  A
C326        C327   1.400       .  A
C326        H335   1.083       .  S
C327        C328   1.401       .  A
C327        H336   1.083       .  S
C328        C331   1.443       .  S
C328        C329   1.403   1_556  A
C329        C330   1.400       .  A
C329        H337   1.083       .  S
C330        H338   1.083       .  S
C331        C332   1.208       .  T
C333        C334   1.208       .  T
C339        C347   1.446       .  S
C339        C340   1.402       .  A
C339        C344   1.403       .  A
C340        C341   1.402       .  A
C340        H349   1.083       .  S
C341        C342   1.403       .  A
C341        H350   1.083       .  S
C342        C345   1.446       .  S
C342        C343   1.401       .  A
C343        C344   1.401       .  A
C343        H351   1.083       .  S
C344        H352   1.083       .  S
C345        C346   1.209       .  T
C347        C348   1.210       .  T
C353        C361   1.446       .  S
C353        C354   1.402       .  A
C353        C358   1.404       .  A
C354        C355   1.401       .  A
C354        H363   1.084       .  S
C355        C356   1.404       .  A
C355        H364   1.083       .  S
C356        C359   1.445       .  S
C356        C357   1.401       .  A
C357        C358   1.401       .  A
C357        H365   1.083       .  S
C358        H366   1.084       .  S
C359        C360   1.209       .  T
C361        C362   1.209       .  T
C367        C375   1.445       .  S
C367        C368   1.402       .  A
C367        C372   1.404       .  A
C368        C369   1.402       .  A
C368        H377   1.084       .  S
C369        C370   1.404       .  A
C369        H378   1.083       .  S
C370        C373   1.448       .  S
C370        C371   1.402       .  A
C371        C372   1.401       .  A
C371        H379   1.084       .  S
C372        H380   1.083       .  S
C373        C374   1.211       .  T
C375        C376   1.209       .  T
C381        C389   1.443       .  S
C381        C382   1.401       .  A
C381        C386   1.403       .  A
C382        C383   1.400       .  A
C382        H391   1.083       .  S
C383        C384   1.403       .  A
C383        H392   1.083       .  S
C384        C387   1.443       .  S
C384        C385   1.401       .  A
C385        C386   1.400       .  A
C385        H393   1.083       .  S
C386        H394   1.083       .  S
C387        C388   1.207       .  T
C389        C390   1.208       .  T
C395        C403   1.445       .  S
C395        C396   1.401       .  A
C395        C400   1.403       .  A
C396        C397   1.399       .  A
C396        H405   1.083       .  S
C397        C398   1.401       .  A
C397        H406   1.084       .  S
C398        C401   1.444   1_556  S
C398        C399   1.403       .  A
C399        C400   1.403       .  A
C399        H407   1.083   1_556  S
C400        H408   1.083       .  S
C401        C402   1.208       .  T
C403        C404   1.209       .  T
C409        C417   1.445       .  S
C409        C410   1.404       .  A
C409        C414   1.401       .  A
C410        C411   1.402       .  A
C410        H419   1.083       .  S
C411        C412   1.401       .  A
C411        H420   1.083       .  S
C412        C415   1.444       .  S
C412        C413   1.403       .  A
C413        C414   1.400       .  A
C413        H421   1.083       .  S
C414        H422   1.083       .  S
C415        C416   1.208   1_655  T
C417        C418   1.209       .  T
C423        C431   1.446       .  S
C423        C424   1.403       .  A
C423        C428   1.402   1_556  A
C424        C425   1.404       .  A
C424        H433   1.083       .  S
C425        C426   1.405       .  A
C425        H434   1.083       .  S
C426        C429   1.446       .  S
C426        C427   1.400   1_556  A
C427        C428   1.399       .  A
C427        H435   1.083       .  S
C428        H436   1.083       .  S
C429        C430   1.210       .  T
C431        C432   1.209       .  T
C437        C445   1.446       .  S
C437        C438   1.401       .  A
C437        C442   1.404       .  A
C438        C439   1.401       .  A
C438        H447   1.083       .  S
C439        C440   1.404       .  A
C439        H448   1.084       .  S
C440        C443   1.444       .  S
C440        C441   1.401       .  A
C441        C442   1.401       .  A
C441        H449   1.083       .  S
C442        H450   1.084       .  S
C443        C444   1.208       .  T
C445        C446   1.209       .  T
C451        C459   1.443       .  S
C451        C452   1.404       .  A
C451        C456   1.401       .  A
C452        C453   1.401       .  A
C452        H461   1.084       .  S
C453        C454   1.401       .  A
C453        H462   1.083       .  S
C454        C457   1.441       .  S
C454        C455   1.403       .  A
C455        C456   1.399       .  A
C455        H463   1.083       .  S
C456        H464   1.083       .  S
C457        C458   1.207       .  T
C459        C460   1.208       .  T
C465        C473   1.445       .  S
C465        C466   1.401       .  A
C465        C470   1.404       .  A
C466        C467   1.400       .  A
C466        H475   1.083       .  S
C467        C468   1.403       .  A
C467        H476   1.083       .  S
C468        C471   1.445       .  S
C468        C469   1.402       .  A
C469        C470   1.402       .  A
C469        H477   1.083       .  S
C470        H478   1.083       .  S
C471        C472   1.209       .  T
C473        C474   1.209       .  T
C479        C487   1.447       .  S
C479        C480   1.405       .  A
C479        C484   1.401   1_554  A
C480        C481   1.403       .  A
C480        H489   1.083       .  S
C481        C482   1.402       .  A
C481        H490   1.083       .  S
C482        C485   1.446       .  S
C482        C483   1.403   1_554  A
C483        C484   1.400       .  A
C483        H491   1.083       .  S
C484        H492   1.083       .  S
C485        C486   1.209   1_655  T
C487        C488   1.210       .  T
C493        C501   1.442       .  S
C493        C494   1.400       .  A
C493        C498   1.403   1_556  A
C494        C495   1.400       .  A
C494        H503   1.083       .  S
C495        C496   1.403       .  A
C495        H504   1.083       .  S
C496        C499   1.445   1_565  S
C496        C497   1.402   1_556  A
C497        C498   1.401       .  A
C497        H505   1.083   1_565  S
C498        H506   1.083       .  S
C499        C500   1.209       .  T
C501        C502   1.207       .  T
C507        C515   1.444       .  S
C507        C508   1.402       .  A
C507        C512   1.401       .  A
C508        C509   1.402       .  A
C508        H517   1.083       .  S
C509        C510   1.403   1_556  A
C509        H518   1.083       .  S
C510        C513   1.444       .  S
C510        C511   1.401       .  A
C511        C512   1.399   1_554  A
C511        H519   1.083       .  S
C512        H520   1.083       .  S
C513        C514   1.208   1_554  T
C515        C516   1.208       .  T
C521        C529   1.444       .  S
C521        C522   1.400       .  A
C521        C526   1.404       .  A
C522        C523   1.399       .  A
C522        H531   1.083   1_565  S
C523        C524   1.402       .  A
C523        H532   1.083       .  S
C524        C527   1.443       .  S
C524        C525   1.402       .  A
C525        C526   1.402       .  A
C525        H533   1.083       .  S
C526        H534   1.083       .  S
C527        C528   1.208       .  T
C529        C530   1.208   1_655  T
C535        C543   1.449       .  S
C535        C536   1.404       .  A
C535        C540   1.402       .  A
C536        C537   1.403       .  A
C536        H545   1.083       .  S
C537        C538   1.402       .  A
C537        H546   1.083       .  S
C538        C541   1.448       .  S
C538        C539   1.404       .  A
C539        C540   1.402       .  A
C539        H547   1.083       .  S
C540        H548   1.083       .  S
C541        C542   1.211       .  T
C543        C544   1.212       .  T
C549        C557   1.448       .  S
C549        C550   1.402       .  A
C549        C554   1.405       .  A
C550        C551   1.401       .  A
C550        H559   1.083       .  S
C551        C552   1.403       .  A
C551        H560   1.083       .  S
C552        C555   1.445       .  S
C552        C553   1.401       .  A
C553        C554   1.402       .  A
C553        H561   1.084       .  S
C554        H562   1.083   1_565  S
C555        C556   1.209       .  T
C557        C558   1.211   1_565  T
C563        C571   1.447       .  S
C563        C564   1.402       .  A
C563        C568   1.404       .  A
C564        C565   1.401       .  A
C564        H573   1.084       .  S
C565        C566   1.403       .  A
C565        H574   1.083       .  S
C566        C569   1.445       .  S
C566        C567   1.401       .  A
C567        C568   1.402       .  A
C567        H575   1.083       .  S
C568        H576   1.084   1_565  S
C569        C570   1.209       .  T
C571        C572   1.210   1_565  T
C577        C585   1.446       .  S
C577        C578   1.402       .  A
C577        C582   1.403       .  A
C578        C579   1.403       .  A
C578        H587   1.083       .  S
C579        C580   1.404       .  A
C579        H588   1.083       .  S
C580        C583   1.447       .  S
C580        C581   1.401       .  A
C581        C582   1.400       .  A
C581        H589   1.083       .  S
C582        H590   1.084       .  S
C583        C584   1.210       .  T
C585        C586   1.209       .  T
C591        C599   1.444       .  S
C591        C592   1.401       .  A
C591        C596   1.403       .  A
C592        C593   1.402       .  A
C592        H601   1.083       .  S
C593        C594   1.404       .  A
C593        H602   1.084       .  S
C594        C597   1.446       .  S
C594        C595   1.401       .  A
C595        C596   1.400       .  A
C595        H603   1.083       .  S
C596        H604   1.083       .  S
C597        C598   1.209       .  T
C599        C600   1.208       .  T
C605        C613   1.446   1_554  S
C605        C606   1.404       .  A
C605        C610   1.401   1_554  A
C606        C607   1.402       .  A
C606        H615   1.083       .  S
C607        C608   1.402       .  A
C607        H616   1.083       .  S
C608        C611   1.446       .  S
C608        C609   1.403   1_554  A
C609        C610   1.401       .  A
C609        H617   1.083       .  S
C610        H618   1.083       .  S
C611        C612   1.209       .  T
C613        C614   1.210       .  T
C619        C627   1.443       .  S
C619        C620   1.403   1_554  A
C619        C624   1.401       .  A
C620        C621   1.400       .  A
C620        H629   1.084       .  S
C621        C622   1.401       .  A
C621        H630   1.083       .  S
C622        C625   1.445       .  S
C622        C623   1.404   1_556  A
C623        C624   1.401       .  A
C623        H631   1.083       .  S
C624        H632   1.083       .  S
C625        C626   1.209   1_655  T
C627        C628   1.208       .  T
