geometry optimzed in LAMMPS
_audit_creation_date              2020-11-30 
_audit_creation_method            'lammps2cif' 
_symmetry_space_group_name_H-M    'P1' 
_symmetry_Int_Tables_number       1 
_symmetry_cell_setting            triclinic 
loop_ 
_symmetry_equiv_pos_as_xyz 
  x,y,z 
_cell_length_a                    35.19894292 
_cell_length_b                    35.37151859315762 
_cell_length_c                    44.49712503188125 
_cell_angle_alpha                 90.89121193788114 
_cell_angle_beta                  89.11960906772906 
_cell_angle_gamma                 119.86406018383538 
loop_ 
_atom_site_label 
_atom_site_type_symbol 
_atom_site_fract_x 
_atom_site_fract_y 
_atom_site_fract_z 
_atom_site_charge 
In1        In  0.17325544  0.05966428  0.75911243     1.36900
C2          C  0.20584943  0.14172646  0.77961578     0.79500
O3          O  0.20761154  0.06406157  0.71509930    -0.59000
O4          O  0.14360642  0.05599218  0.71367440    -0.49900
C5          C  0.21675943  0.01884986  0.76716817     0.72100
O6          O  0.23474885  0.05963796  0.77055746    -0.44800
C7          C  0.10096154  0.00803009  0.79145700     0.76800
O8          O  0.20909296  0.11283734  0.79342643    -0.56600
O9          O  0.09901571  0.01632609  0.76419518    -0.46700
O10         O  0.18560439  0.12890401  0.75513205    -0.53000
C11         C  0.17635086  0.05951250  0.69914769     0.87000
O12         O  0.18018634  0.50333511  0.75612665    -0.54900
O13         O  0.13893600  0.02745784  0.80199455    -0.58200
In14       In  0.29202723  0.38283017  0.75337548     1.36900
C15         C  0.36256202  0.41841358  0.78685953     0.79500
O16         O  0.30859316  0.45218563  0.75136944    -0.59000
O17         O  0.24479621  0.40450288  0.76685881    -0.49900
C18         C  0.28490218  0.37478740  0.69446879     0.72100
O19         O  0.31918364  0.38194833  0.70782718    -0.44800
C20         C  0.25610538  0.30310074  0.77529582     0.76800
O21         O  0.36444511  0.41567180  0.75858606    -0.56600
O22         O  0.23902789  0.32685990  0.77918084    -0.46700
O23         O  0.32464566  0.40350351  0.79785506    -0.53000
C24         C  0.27128020  0.44384887  0.76066812     0.87000
O25         O  0.25372694  0.37015404  0.71116801    -0.54900
O26         O  0.28895943  0.31865168  0.75796441    -0.58200
C27         C  0.47960696  0.46020749  0.81543876    -0.00600
In28       In  0.07343937  0.15053791  0.87600943     1.36900
C29         C  0.03470317  0.07375490  0.84762565     0.79500
O30         O  0.00759833  0.14571311  0.87119135    -0.59000
O31         O  0.06356564  0.20878790  0.87241346    -0.49900
C32         C  0.07725406  0.15207018  0.93588989     0.72100
O33         O  0.04613655  0.12243537  0.92136711    -0.44800
C34         C  0.15154820  0.19036960  0.84793750     0.76800
O35         O  0.04834737  0.07792737  0.87420594    -0.56600
O36         O  0.12282032  0.20149199  0.84562984    -0.46700
O37         O  0.04240559  0.10883109  0.83545540    -0.53000
C38         C  0.02252672  0.18617968  0.87080130     0.87000
O39         O  0.10779118  0.18029890  0.91996615    -0.54900
O40         O  0.14062608  0.15823567  0.86495554    -0.58200
In41       In  0.38703814  0.26723373  0.87514989     1.36900
C42         C  0.30825659  0.24065755  0.85044693     0.79500
O43         O  0.35511825  0.24196114  0.92028786    -0.59000
O44         O  0.41613612  0.30096375  0.91918796    -0.49900
C45         C  0.43412673  0.22689351  0.86794113     0.72100
O46         O  0.39830907  0.21001407  0.88215759    -0.45400
C47         C  0.43105550  0.34188981  0.84504167     0.76800
O48         O  0.32720968  0.21844029  0.84768018    -0.56600
O49         O  0.42546543  0.34141071  0.87324156    -0.46700
O50         O  0.32754610  0.27324690  0.86763923    -0.53000
C51         C  0.38561295  0.27238046  0.93496362     0.87000
O52         O  0.44458136  0.26276875  0.85613380    -0.54900
O53         O  0.41428525  0.30467913  0.83279875    -0.58200
C54         C  0.24292070  0.26261995  0.79299336     0.88400
C55         C  0.28024261  0.27016963  0.81357105    -0.51900
C56         C  0.27236581  0.23574286  0.83084261     0.11300
C57         C  0.22604182  0.19569132  0.82614483     0.22200
C58         C  0.23217528  0.22145401  0.77455541    -0.52600
C59         C  0.22288527  0.18618116  0.79194925     0.11400
C60         C  0.20331385  0.24861126  0.81390096    -0.52100
C61         C  0.19358388  0.21300711  0.83099038     0.12000
H62         H  0.31127193  0.30069201  0.81411766     0.16500
H63         H  0.21877942  0.16719507  0.84024659     0.02200
H64         H  0.23055787  0.21996673  0.75018257     0.16800
H65         H  0.18323270  0.26400203  0.81393837     0.16600
C66         C  0.47226668  0.46282736  0.15139951    -0.00600
In67       In  0.08512308  0.38532015  0.21876064     1.36900
C68         C  0.04818032  0.42033057  0.18547029     0.79500
O69         O  0.14251881  0.45226633  0.22519742    -0.59000
O70         O  0.15191042  0.40612584  0.19973112    -0.49900
C71         C  0.08076337  0.37388640  0.27847344     0.72100
O72         O  0.06330353  0.39272019  0.26547635    -0.44800
C73         C  0.04346446  0.30722417  0.19285663     0.76800
O74         O  0.04213148  0.41570935  0.21354353    -0.56600
O75         O  0.08469658  0.32954744  0.19307766    -0.46700
O76         O  0.07342672  0.40787238  0.17482800    -0.53000
C77         C  0.16831080  0.44426141  0.21020967     0.87000
O78         O  0.09957152  0.35980467  0.26103599    -0.54900
O79         O  0.02425834  0.32257876  0.20879626    -0.58200
In80       In  0.38515786  0.06479966  0.20019388     1.36900
C81         C  0.40923453  0.01466969  0.16968559     0.79500
O82         O  0.32184527  0.00231862  0.20293742    -0.59000
O83         O  0.31928043  0.06047128  0.19680219    -0.49900
C84         C  0.39503832  0.07116931  0.25938779     0.72100
O85         O  0.41571560  0.05865112  0.24239244    -0.44800
C86         C  0.43373239  0.14485156  0.17704164     0.76800
O87         O  0.41521434  0.02172643  0.19755570    -0.56600
O88         O  0.40132685  0.11497718  0.16345556    -0.46700
O89         O  0.39164218  0.03385375  0.15735326    -0.53000
C90         C  0.29858177  0.01981316  0.20055249     0.87000
O91         O  0.37096744  0.08256266  0.24613118    -0.54900
O92         O  0.44145360  0.13354587  0.20186072    -0.58200
C93         C  0.01822443  0.26851511  0.17252495     0.88400
C94         C  0.48730307  0.27477198  0.14770353    -0.51900
C95         C  0.46209809  0.24177982  0.12854441     0.11300
C96         C  0.46854785  0.20146151  0.13158948     0.22200
C97         C  0.48576327  0.22380917  0.18421092    -0.52600
C98         C  0.46083102  0.18957215  0.16536248     0.11400
C99         C  0.04474775  0.25448288  0.15217891    -0.52100
C100        C  0.01945052  0.22012004  0.13326547     0.12000
H101        H  0.48632709  0.30504675  0.14878143     0.16500
H102        H  0.44817832  0.17387136  0.11619800     0.02200
H103        H  0.48492424  0.22075337  0.20851294     0.16800
H104        H  0.08009080  0.26912697  0.15352609     0.16600
In105      In  0.37916798  0.27504283  0.08648150     1.36900
C106        C  0.40252992  0.34483159  0.12152104     0.79500
O107        O  0.31819071  0.27769730  0.07901803    -0.59000
O108        O  0.31322508  0.22419527  0.10369784    -0.49900
C109        C  0.38588210  0.27407940  0.02681987     0.72100
O110        O  0.40515879  0.30864357  0.04218705    -0.44800
C111        C  0.43243718  0.24887317  0.10900467     0.76800
O112        O  0.41002799  0.34737366  0.09355263    -0.56600
O113        O  0.39228104  0.22205609  0.10516126    -0.46700
O114        O  0.38228770  0.30649644  0.13148274    -0.53000
C115        C  0.29403234  0.24283063  0.09271841     0.87000
O116        O  0.36496735  0.23973479  0.04188980    -0.54900
O117        O  0.44476147  0.28624890  0.09871781    -0.58200
In118      In  0.07693711  0.15699981  0.08751612     1.36900
C119        C  0.04979994  0.08329122  0.11831162     0.79500
O120        O  0.13725034  0.15136896  0.08999667    -0.59000
O121        O  0.14442855  0.21481497  0.09055973    -0.49900
C122        C  0.07293319  0.15610440  0.02756901     0.72100
O123        O  0.04708698  0.12381700  0.04319736    -0.44800
C124        C  0.03871275  0.19770742  0.11561263     0.76800
O125        O  0.04084165  0.08333895  0.09095558    -0.56600
O126        O  0.07750926  0.20655766  0.11953381    -0.46700
O127        O  0.07194929  0.12069691  0.12983407    -0.53000
C128        C  0.16259299  0.19192020  0.09151509     0.87000
O129        O  0.09857524  0.18944541  0.04242317    -0.54900
O130        O  0.01839041  0.16774697  0.09649318    -0.58200
C131        C  0.47714043  0.46196696  0.48423591    -0.00600
In132      In  0.17491925  0.06173803  0.54728560     1.36900
C133        C  0.09989920  0.03116132  0.51718490     0.79500
O134        O  0.16516991  0.12003682  0.55046016    -0.59000
O135        O  0.22668403  0.12993422  0.53468475    -0.49900
C136        C  0.17897875  0.05696310  0.60716461     0.72100
O137        O  0.14625266  0.03050746  0.59214704    -0.44800
C138        C  0.21505458  0.02263892  0.51922026     0.76800
O139        O  0.10067511  0.02254749  0.54450208    -0.56600
O140        O  0.23047512  0.06320518  0.52062894    -0.46700
O141        O  0.13710658  0.05464380  0.50549694    -0.53000
C142        C  0.20306028  0.14652687  0.54093783     0.87000
O143        O  0.21062072  0.08440361  0.59165428    -0.54900
O144        O  0.17965339  0.00132220  0.53362679    -0.58200
In145      In  0.28287391  0.36357883  0.54402544     1.36900
C146        C  0.35581257  0.39392907  0.51083023     0.79500
O147        O  0.28959496  0.30361039  0.54228430    -0.59000
O148        O  0.22624839  0.29532450  0.53635006    -0.49900
C149        C  0.28154157  0.37084080  0.60336161     0.72100
O150        O  0.31655961  0.38485070  0.58850906    -0.44800
C151        C  0.25464910  0.41465662  0.52127190     0.76800
O152        O  0.35632499  0.39724403  0.53914973    -0.56600
O153        O  0.23300861  0.37374420  0.51835156    -0.46700
O154        O  0.31799582  0.37484783  0.49955064    -0.53000
C155        C  0.24953696  0.27760146  0.53826327     0.87000
O156        O  0.24717329  0.35435247  0.58801680    -0.54900
O157        O  0.28801854  0.42843775  0.53756084    -0.58200
C158        C  0.27345588  0.49858410  0.46262388     0.88400
C159        C  0.28227398  0.47049704  0.48360119    -0.51900
C160        C  0.24855563  0.44483051  0.50210167     0.11300
C161        C  0.20758622  0.44998323  0.49814777     0.22200
C162        C  0.23157520  0.46699895  0.44574847    -0.52600
C163        C  0.19682190  0.44150496  0.46423768     0.11400
C164        C  0.27077332  0.02764078  0.48192810    -0.52100
C165        C  0.22484188  0.49974976  0.50179485     0.12000
H166        H  0.31305751  0.47017886  0.48336345     0.16500
H167        H  0.17965217  0.42926023  0.51325109     0.02200
H168        H  0.22942183  0.46558302  0.42139224     0.16800
H169        H  0.28659543  0.06295541  0.48113506     0.16600
In170      In  0.39777538  0.05880486  0.41038229     1.36900
C171        C  0.42370524  0.00613353  0.43349325     0.79500
O172        O  0.46455127  0.11584102  0.41790898    -0.59000
O173        O  0.41007308  0.12648406  0.41829479    -0.49900
C174        C  0.39674011  0.06278010  0.35065251     0.72100
O175        O  0.42343178  0.05532586  0.36421301    -0.44800
C176        C  0.32335688  0.02644725  0.44146823     0.76800
O177        O  0.39421045  0.99325001  0.41384088    -0.56600
O178        O  0.35936247  0.05572767  0.45186792    -0.46700
O179        O  0.44022870  0.04574526  0.44065479    -0.53000
C180        C  0.45087406  0.14248863  0.42057804     0.87000
O181        O  0.36966765  0.06653940  0.36735978    -0.54900
O182        O  0.32496594  0.01603229  0.41444714    -0.58200
In183      In  0.07119006  0.36074483  0.43047541     1.36900
C184        C  0.02574121  0.39111422  0.46037182     0.79500
O185        O  0.00734679  0.29832613  0.42877559    -0.59000
O186        O  0.06375594  0.29495011  0.44071431    -0.49900
C187        C  0.07647916  0.36495658  0.37052079     0.72100
O188        O  0.05788942  0.38138160  0.38602579    -0.44800
C189        C  0.15242080  0.41186247  0.45235660     0.76800
O190        O  0.03636532  0.39959738  0.43305976    -0.56600
O191        O  0.12204976  0.38225379  0.46756828    -0.46700
O192        O  0.03915342  0.36803703  0.47241153    -0.53000
C193        C  0.02308218  0.27481834  0.43601422     0.87000
O194        O  0.09284350  0.34665207  0.38557676    -0.54900
O195        O  0.14150822  0.41477290  0.42607985    -0.58200
C196        C  0.47975143  0.18800537  0.42529195    -0.11400
C197        C  0.99645537  0.22835527  0.43732449    -0.13000
C198        C  0.23188401  0.23114390  0.53702819    -0.11400
C199        C  0.21842310  0.19239166  0.53798942    -0.13000
C200        C  0.46952159  0.99159409  0.46785771    -0.14600
C201        C  0.43687903  0.97693136  0.44758612    -0.29700
H202        H  0.47040227  0.48809986  0.43966732     0.14500
H203        H  0.41831055  0.94245581  0.44188192     0.15000
C204        C  0.98614469  0.43208469  0.46477187    -0.14600
C205        C  0.00108484  0.40784067  0.47758196    -0.29700
H206        H  0.98842575  0.43557992  0.44053935     0.14500
H207        H  0.99889748  0.40381186  0.50173870     0.15000
C208        C  0.43629052  0.43534245  0.50374244    -0.14600
C209        C  0.39592944  0.41191467  0.49201098    -0.29700
H210        H  0.43927592  0.43836876  0.52808928     0.14500
H211        H  0.39214084  0.40891020  0.46772740     0.15000
C212        C  0.01891035  0.98825624  0.51034814    -0.14600
C213        C  0.05957347  0.01465132  0.49937194    -0.29700
H214        H  0.01473535  0.98130611  0.53425022     0.14500
H215        H  0.06378573  0.02151768  0.47545942     0.15000
C216        C  0.24778106  0.22523888  0.09464588    -0.11400
C217        C  0.20885402  0.21053935  0.09391196    -0.13000
C218        C  0.39738008  0.06726962  0.31855872    -0.11400
C219        C  0.39726862  0.07056208  0.29159951    -0.13000
C220        C  0.07973086  0.36944772  0.31082048    -0.11400
C221        C  0.07867449  0.36699919  0.33801945    -0.13000
C222        C  0.21346856  0.47590702  0.20625409    -0.11400
C223        C  0.25224677  0.50065700  0.20515227    -0.13000
C224        C  0.01001355  0.00301253  0.12429408    -0.14600
C225        C  0.03397831  0.04328351  0.13625783    -0.29700
H226        H  0.50366086  0.99665296  0.10328220     0.14500
H227        H  0.03704122  0.04714828  0.16052964     0.15000
C228        C  0.44433173  0.42386543  0.13094536    -0.14600
C229        C  0.41836272  0.38340227  0.14147676    -0.29700
H230        H  0.44920027  0.42785096  0.10676162     0.14500
H231        H  0.41317535  0.37824421  0.16555233     0.15000
C232        C  0.42366965  0.98817993  0.15233598    -0.14600
C233        C  0.44385704  0.47543585  0.17049211    -0.29700
H234        H  0.42165007  0.98810035  0.12798903     0.14500
H235        H  0.44655273  0.47611818  0.19457990     0.15000
C236        C  0.99994774  0.45126494  0.17666025    -0.14600
C237        C  0.02678888  0.43736947  0.16590695    -0.29700
H238        H  0.49372720  0.45053994  0.19610639     0.14500
H239        H  0.03126589  0.43618936  0.14180497     0.15000
C240        C  0.38607904  0.27373950  0.96731619    -0.11400
C241        C  0.38660766  0.27398937  0.99446593    -0.13000
C242        C  0.07440631  0.15479197  0.99525834    -0.11400
C243        C  0.07684784  0.15388934  0.96818309    -0.13000
C244        C  0.48752704  0.19432624  0.86716331    -0.11400
C245        C  0.46220905  0.20805172  0.86650276    -0.13000
C246        C  0.46713062  0.42244689  0.83724587    -0.14600
C247        C  0.45405741  0.38184489  0.82676264    -0.29700
H248        H  0.46388090  0.42725923  0.86111015     0.14500
H249        H  0.45649948  0.37714995  0.80276747     0.15000
C250        C  0.99895646  0.99272638  0.84380172    -0.14600
C251        C  0.01215526  0.03190157  0.83121598    -0.29700
H252        H  0.49981641  0.99191730  0.85822943     0.14500
H253        H  0.00793974  0.03349459  0.80724084     0.15000
C254        C  0.28194880  0.37299329  0.66245453    -0.11400
C255        C  0.28094810  0.37240650  0.63546203    -0.13000
C256        C  0.40121573  0.43652279  0.80598843    -0.14600
C257        C  0.44083231  0.44693220  0.79484926    -0.29700
H258        H  0.39674665  0.43887979  0.83000820     0.14500
H259        H  0.44446417  0.44366560  0.77080108     0.15000
C260        C  0.17805666  0.05814099  0.66675400    -0.11400
C261        C  0.17932423  0.05702946  0.63957789    -0.13000
C262        C  0.02148573  0.47054779  0.79267442    -0.14600
C263        C  0.06276883  0.97976640  0.81064801    -0.29700
H264        H  0.01530819  0.96397548  0.77769268     0.14500
H265        H  0.06478287  0.47900298  0.82777858     0.15000
C266        C  0.25899124  0.47646922  0.76266611    -0.11400
C267        C  0.24445923  0.50068512  0.76224765    -0.13000
In268      In  0.17502645  0.56317165  0.75664064     1.36900
C269        C  0.20670279  0.64303998  0.78128672     0.79500
O270        O  0.20385293  0.57157806  0.71014663    -0.59000
O271        O  0.13640245  0.55260118  0.71423906    -0.49900
C272        C  0.22087629  0.52346064  0.76019164     0.72100
O273        O  0.23881130  0.56437960  0.76211859    -0.44800
C274        C  0.10152732  0.51177921  0.78685834     0.76800
O275        O  0.20351990  0.61116984  0.79543006    -0.56600
O276        O  0.10163939  0.52759420  0.76159204    -0.46700
O277        O  0.19372880  0.63425299  0.75453835    -0.53000
C278        C  0.16829806  0.56047306  0.69704019     0.87000
O279        O  0.17732164  0.99951760  0.75917304    -0.54900
O280        O  0.13893032  0.52303023  0.79686384    -0.58200
In281      In  0.29230192  0.88223627  0.75693019     1.36900
C282        C  0.36604344  0.91786034  0.78865854     0.79500
O283        O  0.29819694  0.94666707  0.74855909    -0.59000
O284        O  0.24866344  0.90357569  0.77903642    -0.49900
C285        C  0.28450683  0.87325128  0.69765267     0.72100
O286        O  0.32087898  0.89494523  0.71048328    -0.44800
C287        C  0.25568994  0.80299988  0.77928647     0.76800
O288        O  0.36491261  0.90868114  0.76106066    -0.56600
O289        O  0.23750726  0.82592808  0.78158447    -0.46700
O290        O  0.32964494  0.90925456  0.79988914    -0.53000
C291        C  0.26738873  0.94001374  0.76626864     0.87000
O292        O  0.25178898  0.85484930  0.71504340    -0.54900
O293        O  0.28978702  0.81892402  0.76306939    -0.58200
C294        C  0.48500874  0.95597821  0.81342289    -0.00600
In295      In  0.07290734  0.64540147  0.88088209     1.36900
C296        C  0.03639528  0.56271085  0.86251861     0.79500
O297        O  0.04538947  0.68985663  0.88919474    -0.59000
O298        O  0.02036671  0.64554464  0.85236894    -0.49900
C299        C  0.07246129  0.64848852  0.94117454     0.72100
O300        O  0.04107590  0.61973830  0.92616113    -0.44800
C301        C  0.15112101  0.68878035  0.85214156     0.76800
O302        O  0.06264082  0.57763239  0.88423611    -0.56600
O303        O  0.12444826  0.70259176  0.85452214    -0.46700
O304        O  0.02877207  0.59005551  0.85018826    -0.53000
C305        C  0.01838096  0.67445977  0.86802363     0.87000
O306        O  0.10461314  0.67524302  0.92557338    -0.54900
O307        O  0.13835045  0.65291895  0.86488543    -0.58200
In308      In  0.38818327  0.76604848  0.87616081     1.36900
C309        C  0.30818519  0.74041368  0.85382905     0.79500
O310        O  0.36504766  0.73010293  0.92034166    -0.59000
O311        O  0.40123563  0.79917339  0.92166332    -0.49900
C312        C  0.44187531  0.73378284  0.87064416     0.72100
O313        O  0.40215808  0.71214482  0.86299710    -0.45400
C314        C  0.43188563  0.83609550  0.84104874     0.76800
O315        O  0.32519666  0.71633928  0.85179650    -0.56600
O316        O  0.42586472  0.83870312  0.86889309    -0.46700
O317        O  0.32985565  0.77432582  0.86955106    -0.53000
C318        C  0.38281526  0.76424427  0.93630866     0.87000
O319        O  0.45403134  0.77163771  0.88036387    -0.54900
O320        O  0.41583590  0.79758316  0.83113251    -0.58200
C321        C  0.24208860  0.76271521  0.79719334     0.88400
C322        C  0.27919356  0.77026567  0.81795823    -0.51900
C323        C  0.27164926  0.73555986  0.83479666     0.11300
C324        C  0.22557862  0.69516482  0.82945949     0.22200
C325        C  0.23222721  0.72233120  0.77833848    -0.52600
C326        C  0.22301155  0.68664434  0.79508542     0.11400
C327        C  0.20208409  0.74790005  0.81793833    -0.52100
C328        C  0.19266582  0.71199335  0.83465826     0.12000
H329        H  0.31007201  0.80094515  0.81870843     0.16500
H330        H  0.21852690  0.66635723  0.84313345     0.02200
H331        H  0.23103461  0.72164858  0.75394051     0.16800
H332        H  0.18179231  0.76306573  0.81825894     0.16600
C333        C  0.47684565  0.96061498  0.14718471    -0.00600
In334      In  0.08312226  0.88608371  0.21693024     1.36900
C335        C  0.05003061  0.91975609  0.17882349     0.79500
O336        O  0.14077022  0.95370340  0.21774620    -0.59000
O337        O  0.15192516  0.90066631  0.20889464    -0.49900
C338        C  0.07579846  0.88160996  0.27693855     0.72100
O339        O  0.06534037  0.90477619  0.26178007    -0.44800
C340        C  0.04282286  0.80682000  0.19242057     0.76800
O341        O  0.03692363  0.91086368  0.20576884    -0.56600
O342        O  0.08374952  0.83131571  0.19062198    -0.46700
O343        O  0.07980219  0.91144714  0.17155554    -0.53000
C344        C  0.16780828  0.94127111  0.21145648     0.87000
O345        O  0.08823712  0.85956423  0.26154101    -0.54900
O346        O  0.02341240  0.82134996  0.20896052    -0.58200
In347      In  0.38512950  0.56868223  0.20915461     1.36900
C348        C  0.40863393  0.51987987  0.17668031     0.79500
O349        O  0.32096683  0.50778271  0.21295239    -0.59000
O350        O  0.32061425  0.56578597  0.20148824    -0.49900
C351        C  0.39098919  0.56964218  0.26862489     0.72100
O352        O  0.40736851  0.55240082  0.25171285    -0.44800
C353        C  0.43545890  0.64876215  0.18664903     0.76800
O354        O  0.42296202  0.53347455  0.20277773    -0.56600
O355        O  0.40463348  0.61842745  0.17228751    -0.46700
O356        O  0.38338942  0.53233137  0.16690163    -0.53000
C357        C  0.29886795  0.52541988  0.20641550     0.87000
O358        O  0.37328710  0.58800385  0.25520084    -0.54900
O359        O  0.44053350  0.63842374  0.21261181    -0.58200
C360        C  0.01774307  0.76649614  0.17344587     0.88400
C361        C  0.49053937  0.77531656  0.15125429    -0.51900
C362        C  0.46511710  0.73998617  0.13389072     0.11300
C363        C  0.47161475  0.70065729  0.13970042     0.22200
C364        C  0.48893332  0.72833030  0.19128095    -0.52600
C365        C  0.46392893  0.69236394  0.17383242     0.11400
C366        C  0.04446665  0.75173875  0.15387125    -0.52100
C367        C  0.01931149  0.71602060  0.13600606     0.12000
H368        H  0.48920508  0.80535577  0.15009858     0.16500
H369        H  0.45102534  0.67157076  0.12551465     0.02200
H370        H  0.48784249  0.72780223  0.21568906     0.16800
H371        H  0.07988912  0.76696811  0.15502602     0.16600
In372      In  0.37941423  0.76477658  0.08872549     1.36900
C373        C  0.40910372  0.83883759  0.12098074     0.79500
O374        O  0.31550545  0.76323195  0.09625391    -0.59000
O375        O  0.31371458  0.70261189  0.09184745    -0.49900
C376        C  0.38431875  0.76466290  0.02851346     0.72100
O377        O  0.38901715  0.79705985  0.04362848    -0.44800
C378        C  0.43338185  0.74218835  0.11390789     0.76800
O379        O  0.41446315  0.83843662  0.09285423    -0.56600
O380        O  0.39258937  0.72093283  0.11847098    -0.46700
O381        O  0.38811901  0.80144506  0.13249774    -0.53000
C382        C  0.29250819  0.72240728  0.09536020     0.87000
O383        O  0.37868023  0.73277299  0.04402522    -0.54900
O384        O  0.44557056  0.77161586  0.09447325    -0.58200
In385      In  0.07652372  0.64991306  0.09322180     1.36900
C386        C  0.04631459  0.57898915  0.12705452     0.79500
O387        O  0.13337475  0.63952850  0.08233394    -0.59000
O388        O  0.14520197  0.69470508  0.10894026    -0.49900
C389        C  0.07024350  0.65189928  0.03336376     0.72100
O390        O  0.04649786  0.61832930  0.04859621    -0.44800
C391        C  0.03889241  0.69325200  0.11882459     0.76800
O392        O  0.03437088  0.57763987  0.10027377    -0.56600
O393        O  0.07966828  0.70846387  0.11670212    -0.46700
O394        O  0.07328147  0.61649695  0.13653172    -0.53000
C395        C  0.16071235  0.67304866  0.09643555     0.87000
O396        O  0.09529449  0.68511952  0.04871589    -0.54900
O397        O  0.01677360  0.65639911  0.10640834    -0.58200
C398        C  0.47949651  0.96145786  0.48621072    -0.00600
In399      In  0.16315879  0.56014722  0.54569817     1.36900
C400        C  0.09142709  0.53084501  0.51230284     0.79500
O401        O  0.15587846  0.61975945  0.55064204    -0.59000
O402        O  0.21741387  0.62849096  0.53625185    -0.49900
C403        C  0.16297280  0.55296948  0.60538881     0.72100
O404        O  0.12832078  0.53683540  0.59037070    -0.44800
C405        C  0.20307907  0.51995955  0.51929888     0.76800
O406        O  0.09022362  0.51967803  0.53924683    -0.56600
O407        O  0.21818752  0.56054842  0.51961274    -0.46700
O408        O  0.12932027  0.55640856  0.50232355    -0.53000
C409        C  0.19464010  0.64588295  0.54269380     0.87000
O410        O  0.19766050  0.57043985  0.58994961    -0.54900
O411        O  0.16747993  0.49897198  0.53365636    -0.58200
In412      In  0.28768470  0.86386450  0.54676817     1.36900
C413        C  0.36162942  0.88656290  0.51603289     0.79500
O414        O  0.28277983  0.80006599  0.55732287    -0.59000
O415        O  0.23375459  0.79933165  0.52950778    -0.49900
C416        C  0.28330590  0.87050548  0.60615596     0.72100
O417        O  0.31850389  0.88073659  0.59235579    -0.44800
C418        C  0.26470440  0.91735723  0.52051938     0.76800
O419        O  0.36094302  0.90226997  0.54154116    -0.56600
O420        O  0.23851171  0.87692405  0.52215702    -0.46700
O421        O  0.32450734  0.85846458  0.50641972    -0.53000
C422        C  0.24827693  0.77776740  0.54258520     0.87000
O423        O  0.25052110  0.85895991  0.58964190    -0.54900
O424        O  0.30026832  0.93001191  0.53403278    -0.58200
C425        C  0.28389001  0.00107681  0.46113866     0.88400
C426        C  0.29260562  0.97276891  0.48201226    -0.51900
C427        C  0.25883528  0.94715443  0.50057969     0.11300
C428        C  0.21806787  0.95275954  0.49669230     0.22200
C429        C  0.24179179  0.96966761  0.44436784    -0.52600
C430        C  0.20696709  0.94461322  0.46275666     0.11400
C431        C  0.25989256  0.52483754  0.48340145    -0.52100
C432        C  0.23595388  0.00261642  0.50058815     0.12000
H433        H  0.32331973  0.97233435  0.48165284     0.16500
H434        H  0.19012230  0.93220389  0.51183382     0.02200
H435        H  0.23927739  0.96860476  0.42003823     0.16800
H436        H  0.27526226  0.56011221  0.48250923     0.16600
In437      In  0.39390325  0.56625090  0.42016176     1.36900
C438        C  0.43342328  0.53528757  0.45473543     0.79500
O439        O  0.46168821  0.62289619  0.41940708    -0.59000
O440        O  0.40908563  0.63353844  0.43255158    -0.49900
C441        C  0.38918232  0.56367983  0.36033556     0.72100
O442        O  0.39309720  0.53562588  0.37500066    -0.44800
C443        C  0.31346385  0.52452955  0.44345331     0.76800
O444        O  0.43220068  0.53127975  0.42645323    -0.56600
O445        O  0.33825307  0.56500612  0.44661900    -0.46700
O446        O  0.41452525  0.55494637  0.46513292    -0.53000
C447        C  0.44960917  0.64943099  0.42788465     0.87000
O448        O  0.38561031  0.59154582  0.37612842    -0.54900
O449        O  0.32808530  0.50636212  0.42587831    -0.58200
In450      In  0.08039597  0.86962894  0.42809638     1.36900
C451        C  0.03353785  0.89691150  0.45971921     0.79500
O452        O  0.01700862  0.80675134  0.43150732    -0.59000
O453        O  0.07532331  0.80316503  0.42930336    -0.49900
C454        C  0.07984540  0.87841233  0.36870900     0.72100
O455        O  0.07084352  0.90056030  0.38697225    -0.44800
C456        C  0.16223042  0.91695198  0.45053801     0.76800
O457        O  0.03984240  0.90297686  0.43178093    -0.56600
O458        O  0.13059269  0.88866594  0.46559397    -0.46700
O459        O  0.05209511  0.87816505  0.47132638    -0.53000
C460        C  0.03406719  0.78294535  0.43060035     0.87000
O461        O  0.09085801  0.85326805  0.38070482    -0.54900
O462        O  0.15227240  0.92054402  0.42408997    -0.58200
C463        C  0.47977427  0.69482640  0.43103090    -0.11400
C464        C  0.00773406  0.73628084  0.43002487    -0.13000
C465        C  0.22732146  0.73111952  0.54112782    -0.11400
C466        C  0.21174768  0.69209168  0.54136199    -0.13000
C467        C  0.46881929  0.49152475  0.46390189    -0.14600
C468        C  0.45347287  0.51714189  0.47459266    -0.29700
H469        H  0.48851187  0.02653227  0.47236662     0.14500
H470        H  0.45097923  0.52071565  0.49871719     0.15000
C471        C  0.99313313  0.93709714  0.46750642    -0.14600
C472        C  0.00771613  0.91119333  0.47813208    -0.29700
H473        H  0.99687856  0.94446567  0.44374112     0.14500
H474        H  0.00514923  0.90456816  0.50198344     0.15000
C475        C  0.44049986  0.93518493  0.50715428    -0.14600
C476        C  0.40205591  0.90158404  0.49794140    -0.29700
H477        H  0.44186814  0.94824362  0.52964245     0.14500
H478        H  0.39926272  0.88759218  0.47567184     0.15000
C479        C  0.01141128  0.48873449  0.50427870    -0.14600
C480        C  0.05221473  0.51408003  0.49330779    -0.29700
H481        H  0.00693110  0.48456155  0.52853732     0.14500
H482        H  0.05724611  0.51899349  0.46914390     0.15000
C483        C  0.24554298  0.70067653  0.09729504    -0.11400
C484        C  0.20645647  0.68636682  0.09751786    -0.13000
C485        C  0.38994294  0.56482219  0.32799153    -0.11400
C486        C  0.39121632  0.56737030  0.30090294    -0.13000
C487        C  0.07516575  0.88130243  0.30939050    -0.11400
C488        C  0.07705088  0.88085649  0.33652247    -0.13000
C489        C  0.21336074  0.97121606  0.20696990    -0.11400
C490        C  0.25199856  0.99491837  0.20317564    -0.13000
C491        C  0.00217051  0.50023404  0.13558378    -0.14600
C492        C  0.02877115  0.54047440  0.14650357    -0.29700
H493        H  0.49998357  0.49893335  0.10786136     0.14500
H494        H  0.03400312  0.54560508  0.17046954     0.15000
C495        C  0.45087715  0.91960794  0.12763385    -0.14600
C496        C  0.42681924  0.87936196  0.13945413    -0.29700
H497        H  0.45501544  0.92238666  0.10341420     0.14500
H498        H  0.42276438  0.87592184  0.16364296     0.15000
C499        C  0.42165048  0.49316317  0.15830207    -0.14600
C500        C  0.44612287  0.97130396  0.16530814    -0.29700
H501        H  0.41760487  0.49233623  0.13437315     0.14500
H502        H  0.44776130  0.97203801  0.18974050     0.15000
C503        C  0.00491940  0.95249316  0.16575368    -0.14600
C504        C  0.03172691  0.93746098  0.15698674    -0.29700
H505        H  0.49876427  0.95188385  0.19292724     0.14500
H506        H  0.03884305  0.93646353  0.13336367     0.15000
C507        C  0.38307107  0.76355803  0.96879544    -0.11400
C508        C  0.38420962  0.76384380  0.99601596    -0.13000
C509        C  0.07014018  0.65178621  0.00085790    -0.11400
C510        C  0.07134875  0.65068187  0.97363138    -0.13000
C511        C  0.49642971  0.70276706  0.87012926    -0.11400
C512        C  0.47127101  0.71659442  0.86929555    -0.13000
C513        C  0.47269405  0.91568032  0.83257549    -0.14600
C514        C  0.45418174  0.87475335  0.82129726    -0.29700
H515        H  0.47443668  0.91951286  0.85688387     0.14500
H516        H  0.45187659  0.86955819  0.79711496     0.15000
C517        C  0.98993840  0.50086707  0.82863331    -0.14600
C518        C  0.01798511  0.51737851  0.85184027    -0.29700
H519        H  0.48125498  0.52440019  0.81879310     0.14500
H520        H  0.03029734  0.49805284  0.86220556     0.15000
C521        C  0.28097267  0.87073668  0.66549187    -0.11400
C522        C  0.28079595  0.87070870  0.63838809    -0.13000
C523        C  0.40603196  0.93548640  0.80691400    -0.14600
C524        C  0.44533337  0.94679102  0.79456826    -0.29700
H525        H  0.40267906  0.93634583  0.83120723     0.14500
H526        H  0.44792558  0.94609216  0.77018932     0.15000
C527        C  0.16452148  0.55632523  0.66483323    -0.11400
C528        C  0.16306815  0.55333325  0.63773711    -0.13000
C529        C  0.02109099  0.96240858  0.80137510    -0.14600
C530        C  0.06130260  0.48419962  0.80426723    -0.29700
H531        H  0.01964450  0.47436897  0.76860016     0.14500
H532        H  0.06896155  0.97887702  0.83433437     0.15000
C533        C  0.25375520  0.97125863  0.77063791    -0.11400
C534        C  0.23935199  0.99552061  0.77094013    -0.13000
In535      In  0.68097330  0.05496535  0.75654219     1.36900
C536        C  0.71059970  0.13532685  0.78112080     0.79500
O537        O  0.71401613  0.07204904  0.71070083    -0.59000
O538        O  0.64459426  0.03687924  0.71218716    -0.49900
C539        C  0.72644689  0.01420468  0.76249757     0.72100
O540        O  0.74453151  0.05515678  0.76358498    -0.44800
C541        C  0.60524789  0.00650721  0.78600986     0.76800
O542        O  0.70826762  0.10401560  0.79557341    -0.56600
O543        O  0.60664802  0.02113404  0.76002218    -0.46700
O544        O  0.69771947  0.12556962  0.75438183    -0.53000
C545        C  0.67883826  0.05352824  0.69608604     0.87000
O546        O  0.66882724  0.49125388  0.75707355    -0.54900
O547        O  0.64215152  0.01706733  0.79666074    -0.58200
In548      In  0.79130751  0.37277389  0.74913197     1.36900
C549        C  0.86279704  0.41253305  0.78249552     0.79500
O550        O  0.79720060  0.43842421  0.74615810    -0.59000
O551        O  0.73736457  0.38581440  0.76268195    -0.49900
C552        C  0.78963972  0.36601848  0.68980958     0.72100
O553        O  0.82458769  0.38862383  0.70398031    -0.44800
C554        C  0.75753937  0.29469559  0.77385300     0.76800
O555        O  0.86370681  0.40155346  0.75547951    -0.56600
O556        O  0.73768973  0.31606282  0.77416801    -0.46700
O557        O  0.82542086  0.40317868  0.79232573    -0.53000
C558        C  0.75926535  0.42566708  0.75635956     0.87000
O559        O  0.75587461  0.34527913  0.70582114    -0.54900
O560        O  0.79253412  0.31148186  0.75854978    -0.58200
C561        C  0.98090793  0.45908687  0.81192183    -0.00600
In562      In  0.57300663  0.14768486  0.87617166     1.36900
C563        C  0.53345344  0.07508067  0.84270917     0.79500
O564        O  0.50555360  0.14011499  0.87868031    -0.59000
O565        O  0.55802986  0.20089172  0.86434158    -0.49900
C566        C  0.57763199  0.15015774  0.93657258     0.72100
O567        O  0.55535775  0.11544895  0.92189293    -0.44800
C568        C  0.65307059  0.18639016  0.84966372     0.76800
O569        O  0.54829476  0.07580200  0.86851930    -0.56600
O570        O  0.62760486  0.20179086  0.85024883    -0.46700
O571        O  0.53957738  0.11138796  0.83398628    -0.53000
C572        C  0.51763545  0.17812794  0.86994450     0.87000
O573        O  0.59907882  0.18335768  0.92057291    -0.54900
O574        O  0.63878314  0.15143824  0.86417333    -0.58200
In575      In  0.88931887  0.27161100  0.87835579     1.36900
C576        C  0.80982730  0.24084766  0.85396843     0.79500
O577        O  0.85934150  0.23888786  0.92263954    -0.59000
O578        O  0.90685065  0.30614767  0.92327505    -0.49900
C579        C  0.94144440  0.23745320  0.87298741     0.72100
O580        O  0.90388524  0.21965107  0.86146127    -0.45400
C581        C  0.93361931  0.34240891  0.84388952     0.76800
O582        O  0.82698943  0.21707421  0.85607715    -0.56600
O583        O  0.92165739  0.34435317  0.87047680    -0.46700
O584        O  0.83111207  0.27748824  0.86684464    -0.53000
C585        C  0.88216108  0.27266500  0.93821660     0.87000
O586        O  0.95210000  0.27214688  0.88734216    -0.54900
O587        O  0.92291776  0.30444933  0.83498261    -0.58200
C588        C  0.74435924  0.25554607  0.79309745     0.88400
C589        C  0.78107270  0.26525008  0.81463305    -0.51900
C590        C  0.77373225  0.23224010  0.83317935     0.11300
C591        C  0.72806534  0.19060624  0.82833221     0.22200
C592        C  0.73554828  0.21416029  0.77602646    -0.52600
C593        C  0.72625155  0.17962451  0.79412980     0.11400
C594        C  0.70395180  0.24155415  0.81329649    -0.52100
C595        C  0.69462206  0.20719834  0.83173232     0.12000
H596        H  0.81144129  0.29645113  0.81495552     0.16500
H597        H  0.72119881  0.16301757  0.84326558     0.02200
H598        H  0.73500866  0.21194880  0.75164474     0.16800
H599        H  0.68356708  0.25655987  0.81230223     0.16600
C600        C  0.97250533  0.46212208  0.15594380    -0.00600
In601      In  0.58006737  0.38269380  0.21562754     1.36900
C602        C  0.54531948  0.41838573  0.18123048     0.79500
O603        O  0.63417828  0.45200814  0.21734019    -0.59000
O604        O  0.65014726  0.40250139  0.20703302    -0.49900
C605        C  0.57371052  0.37306594  0.27525605     0.72100
O606        O  0.55552397  0.39037549  0.26127351    -0.44800
C607        C  0.54107049  0.30520839  0.18831057     0.76800
O608        O  0.53543772  0.41040318  0.20873923    -0.56600
O609        O  0.58173884  0.33089905  0.18621498    -0.46700
O610        O  0.57275544  0.40810354  0.17150701    -0.53000
C611        C  0.66328232  0.44252098  0.21064649     0.87000
O612        O  0.59379595  0.35933688  0.25884616    -0.54900
O613        O  0.52140279  0.31744091  0.20651655    -0.58200
In614      In  0.88881591  0.06710016  0.20227943     1.36900
C615        C  0.91439234  0.02077048  0.16836487     0.79500
O616        O  0.82529538  0.00490651  0.20580356    -0.59000
O617        O  0.82355307  0.06308270  0.19741430    -0.49900
C618        C  0.90175447  0.07304327  0.26120523     0.72100
O619        O  0.92583159  0.06644608  0.24303728    -0.44800
C620        C  0.93404724  0.14822471  0.18150290     0.76800
O621        O  0.91566417  0.02153332  0.19666548    -0.56600
O622        O  0.90227489  0.11834948  0.16746883    -0.46700
O623        O  0.90035204  0.04396121  0.15735219    -0.53000
C624        C  0.80246631  0.02261242  0.20179876     0.87000
O625        O  0.87245358  0.07822723  0.24925290    -0.54900
O626        O  0.94240863  0.13665524  0.20598921    -0.58200
C627        C  0.51636846  0.26633480  0.16798699     0.88400
C628        C  0.99120773  0.27822472  0.15092690    -0.51900
C629        C  0.96564897  0.24498520  0.13200371     0.11300
C630        C  0.96974246  0.20378442  0.13626991     0.22200
C631        C  0.98560490  0.22698601  0.18886818    -0.52600
C632        C  0.96058611  0.19284610  0.17005417     0.11400
C633        C  0.54348517  0.25460394  0.14648577    -0.52100
C634        C  0.51876017  0.21973870  0.12782091     0.12000
H635        H  0.99137210  0.30909336  0.15119129     0.16500
H636        H  0.94897437  0.17615108  0.12101631     0.02200
H637        H  0.98413234  0.22417444  0.21319812     0.16800
H638        H  0.57892369  0.27015456  0.14770593     0.16600
In639      In  0.88090230  0.27461763  0.09019983     1.36900
C640        C  0.90423719  0.34340116  0.12649233     0.79500
O641        O  0.81795678  0.27456671  0.08617526    -0.59000
O642        O  0.81656245  0.21962454  0.10630760    -0.49900
C643        C  0.88481877  0.27383182  0.03018045     0.72100
O644        O  0.90074267  0.30859615  0.04540708    -0.44800
C645        C  0.93579076  0.25097579  0.11226291     0.76800
O646        O  0.91131811  0.34665526  0.09847012    -0.56600
O647        O  0.89543932  0.22399378  0.11000141    -0.46700
O648        O  0.88439616  0.30478946  0.13594332    -0.53000
C649        C  0.79549520  0.23782026  0.09807450     0.87000
O650        O  0.86917202  0.23957000  0.04548974    -0.54900
O651        O  0.94789631  0.28726800  0.10017172    -0.58200
In652      In  0.57908559  0.15396868  0.08914657     1.36900
C653        C  0.54808968  0.08060297  0.12127972     0.79500
O654        O  0.63909880  0.14709931  0.08782787    -0.59000
O655        O  0.64551610  0.20721354  0.10330619    -0.49900
C656        C  0.57673203  0.15411577  0.02880134     0.72100
O657        O  0.54899005  0.12289988  0.04436911    -0.44800
C658        C  0.53919450  0.19685664  0.11190272     0.76800
O659        O  0.54197821  0.08046487  0.09344657    -0.56600
O660        O  0.57973341  0.21095156  0.11272402    -0.46700
O661        O  0.56969432  0.11813207  0.13273456    -0.53000
C662        C  0.66388208  0.18513636  0.09759853     0.87000
O663        O  0.60460306  0.18598506  0.04389005    -0.54900
O664        O  0.51823159  0.16084358  0.09824792    -0.58200
C665        C  0.97294734  0.46013761  0.48368220    -0.00600
In666      In  0.67316913  0.05824788  0.54406306     1.36900
C667        C  0.60044942  0.02920673  0.51163710     0.79500
O668        O  0.66619545  0.11617837  0.55653619    -0.59000
O669        O  0.71808657  0.12582726  0.52686674    -0.49900
C670        C  0.67678002  0.05015230  0.60365084     0.72100
O671        O  0.64184530  0.02969437  0.58896524    -0.44800
C672        C  0.71285601  0.01884254  0.51676490     0.76800
O673        O  0.59995436  0.01958581  0.53887120    -0.56600
O674        O  0.73087441  0.05955106  0.52045099    -0.46700
O675        O  0.63814467  0.05323948  0.50084980    -0.53000
C676        C  0.69821422  0.14224978  0.54068067     0.87000
O677        O  0.71046716  0.07257003  0.58777066    -0.54900
O678        O  0.67546452  0.99778605  0.52883736    -0.58200
In679      In  0.77806780  0.35767862  0.53986259     1.36900
C680        C  0.85162945  0.38717758  0.50752071     0.79500
O681        O  0.78249487  0.29707299  0.54024698    -0.59000
O682        O  0.71958578  0.29048507  0.53439371    -0.49900
C683        C  0.78240338  0.36491441  0.59892896     0.72100
O684        O  0.81577944  0.38332839  0.58230157    -0.44800
C685        C  0.74790066  0.40663779  0.51684543     0.76800
O686        O  0.85114088  0.39375551  0.53538194    -0.56600
O687        O  0.73193450  0.36701514  0.50985351    -0.46700
O688        O  0.81422958  0.36489292  0.49599100    -0.53000
C689        C  0.74205770  0.27198609  0.53706115     0.87000
O690        O  0.74635033  0.34474368  0.58547531    -0.54900
O691        O  0.77574463  0.41967370  0.53750924    -0.58200
C692        C  0.77168343  0.49435784  0.46013412     0.88400
C693        C  0.77834667  0.46337417  0.47971616    -0.51900
C694        C  0.74375313  0.43769038  0.49765249     0.11300
C695        C  0.70437198  0.44528476  0.49450514     0.22200
C696        C  0.72950297  0.46527030  0.44248899    -0.52600
C697        C  0.69403743  0.43945395  0.46048054     0.11400
C698        C  0.76863236  0.02234675  0.48003477    -0.52100
C699        C  0.72386146  0.49490348  0.50002458     0.12000
H700        H  0.80843299  0.46176410  0.47941737     0.16500
H701        H  0.67593404  0.42447165  0.50921561     0.02200
H702        H  0.72779318  0.46537423  0.41814928     0.16800
H703        H  0.78618506  0.05776162  0.48010761     0.16600
In704      In  0.89881821  0.06093620  0.41250892     1.36900
C705        C  0.93122422  0.01350914  0.43506350     0.79500
O706        O  0.96039166  0.11788009  0.42981042    -0.59000
O707        O  0.90745274  0.12788685  0.41870721    -0.49900
C708        C  0.90339354  0.06740338  0.35260881     0.72100
O709        O  0.93453752  0.07100898  0.36816112    -0.44800
C710        C  0.82029159  0.02006531  0.43942239     0.76800
O711        O  0.91161617  0.00483793  0.41027578    -0.56600
O712        O  0.84701871  0.05994864  0.44348493    -0.46700
O713        O  0.93451550  0.04669640  0.44845045    -0.53000
C714        C  0.94614979  0.14408944  0.42804744     0.87000
O715        O  0.86976280  0.06019542  0.36743224    -0.54900
O716        O  0.83263873  0.00173538  0.42028814    -0.58200
In717      In  0.56835939  0.35958306  0.42653772     1.36900
C718        C  0.52115048  0.38651821  0.45819801     0.79500
O719        O  0.50798097  0.29491916  0.42060147    -0.59000
O720        O  0.56546159  0.29567413  0.43550764    -0.49900
C721        C  0.57189499  0.36608994  0.36700808     0.72100
O722        O  0.55284122  0.38110121  0.38341444    -0.44800
C723        C  0.64953756  0.41063796  0.44839462     0.76800
O724        O  0.53429440  0.39868097  0.43170719    -0.56600
O725        O  0.61963098  0.37960855  0.46296361    -0.46700
O726        O  0.53159763  0.36002716  0.46844458    -0.53000
C727        C  0.52580330  0.27339216  0.42817232     0.87000
O728        O  0.59006877  0.34864492  0.38097342    -0.54900
O729        O  0.63809771  0.41541261  0.42272388    -0.58200
C730        C  0.97293126  0.18954237  0.43484593    -0.11400
C731        C  0.50236357  0.22685554  0.42769629    -0.13000
C732        C  0.72341055  0.22569736  0.53721473    -0.11400
C733        C  0.71106921  0.18736707  0.53853886    -0.13000
C734        C  0.97168681  0.99588301  0.47246887    -0.14600
C735        C  0.94718790  0.98555791  0.44743272    -0.29700
H736        H  0.96537779  0.48549293  0.43899131     0.14500
H737        H  0.93688512  0.95477984  0.43603673     0.15000
C738        C  0.48690053  0.43188027  0.46477090    -0.14600
C739        C  0.49805756  0.40401196  0.47651550    -0.29700
H740        H  0.48978322  0.43646993  0.44057796     0.14500
H741        H  0.49499939  0.39823539  0.50055534     0.15000
C742        C  0.93190100  0.43132558  0.50228173    -0.14600
C743        C  0.89252165  0.40568640  0.48962024    -0.29700
H744        H  0.93358220  0.43481774  0.52667620     0.14500
H745        H  0.89002465  0.40185328  0.46527938     0.15000
C746        C  0.52017674  0.98868424  0.50545425    -0.14600
C747        C  0.56053249  0.01260422  0.49335719    -0.29700
H748        H  0.51732942  0.98497368  0.52973667     0.14500
H749        H  0.56438645  0.01694242  0.46916681     0.15000
C750        C  0.74904510  0.21795695  0.10111713    -0.11400
C751        C  0.70995950  0.20254767  0.10090313    -0.13000
C752        C  0.90592983  0.07110324  0.32038888    -0.11400
C753        C  0.90601511  0.07313611  0.29331411    -0.13000
C754        C  0.57250363  0.37004319  0.30756040    -0.11400
C755        C  0.57242588  0.36831859  0.33468400    -0.13000
C756        C  0.70827291  0.47492371  0.20746887    -0.11400
C757        C  0.74693418  0.49983890  0.20564569    -0.13000
C758        C  0.50598403  0.00025638  0.12759387    -0.14600
C759        C  0.52997519  0.04062062  0.13953544    -0.29700
H760        H  0.00758520  0.99965858  0.09996248     0.14500
H761        H  0.53272434  0.04461580  0.16381460     0.15000
C762        C  0.94387808  0.42233631  0.13622350    -0.14600
C763        C  0.92000920  0.38161079  0.14691135    -0.29700
H764        H  0.94683319  0.42611992  0.11199558     0.14500
H765        H  0.91652138  0.37621197  0.17097806     0.15000
C766        C  0.92987708  0.99647656  0.14943833    -0.14600
C767        C  0.94484413  0.47611494  0.17466068    -0.29700
H768        H  0.93018812  0.99988493  0.12528312     0.14500
H769        H  0.94872867  0.47889404  0.19904883     0.15000
C770        C  0.49887781  0.45087277  0.17205067    -0.14600
C771        C  0.52587933  0.43711857  0.16139121    -0.29700
H772        H  0.99586810  0.45229441  0.20085475     0.14500
H773        H  0.53194508  0.43749755  0.13744857     0.15000
C774        C  0.88167845  0.27278638  0.97063484    -0.11400
C775        C  0.88337802  0.27324428  0.99778719    -0.13000
C776        C  0.57710036  0.15311733  0.99630873    -0.11400
C777        C  0.57779110  0.15184951  0.96907628    -0.13000
C778        C  0.99455002  0.20488755  0.86957062    -0.11400
C779        C  0.97012849  0.21959856  0.87029630    -0.13000
C780        C  0.96897359  0.42154664  0.83366476    -0.14600
C781        C  0.95651499  0.38072314  0.82403483    -0.29700
H782        H  0.96551430  0.42684405  0.85738651     0.14500
H783        H  0.95971799  0.37485394  0.80039223     0.15000
C784        C  0.49795451  0.99545402  0.83417799    -0.14600
C785        C  0.51183417  0.03566566  0.82348418    -0.29700
H786        H  0.00280543  0.99101012  0.86782205     0.14500
H787        H  0.50937214  0.03997598  0.79963682     0.15000
C788        C  0.78802344  0.36532081  0.65776114    -0.11400
C789        C  0.78550654  0.36566472  0.63089064    -0.13000
C790        C  0.90174117  0.43339661  0.80168613    -0.14600
C791        C  0.94197921  0.44499960  0.79107417    -0.29700
H792        H  0.89698695  0.43711689  0.82556038     0.14500
H793        H  0.94594269  0.44117558  0.76707185     0.15000
C794        C  0.67799519  0.05118908  0.66349532    -0.11400
C795        C  0.67769817  0.04967695  0.63620129    -0.13000
C796        C  0.51979300  0.47007744  0.79630631    -0.14600
C797        C  0.56459646  0.98113418  0.80380238    -0.29700
H798        H  0.52126983  0.96998223  0.76866494     0.14500
H799        H  0.56367985  0.48565198  0.83224224     0.15000
C800        C  0.74225198  0.45454349  0.76022746    -0.11400
C801        C  0.72785926  0.47893921  0.76204401    -0.13000
In802      In  0.67317962  0.55620955  0.75821569     1.36900
C803        C  0.70736024  0.63724408  0.78133797     0.79500
O804        O  0.70680476  0.56793012  0.71308499    -0.59000
O805        O  0.63980927  0.55139838  0.71427044    -0.49900
C806        C  0.70896244  0.50640991  0.76173585     0.72100
O807        O  0.73118610  0.54721610  0.76510357    -0.44800
C808        C  0.59980251  0.51051349  0.78992568     0.76800
O809        O  0.71156069  0.60777450  0.79362848    -0.56600
O810        O  0.59973152  0.51553671  0.76191764    -0.46700
O811        O  0.68640428  0.62561787  0.75706188    -0.53000
C812        C  0.67298463  0.55925818  0.69842623     0.87000
O813        O  0.68578627  0.99451136  0.75849472    -0.54900
O814        O  0.63711827  0.52968733  0.80165009    -0.58200
In815      In  0.80144791  0.87543327  0.75100510     1.36900
C816        C  0.88114244  0.90186672  0.77255901     0.79500
O817        O  0.81367082  0.94363634  0.74738005    -0.59000
O818        O  0.75540492  0.89659445  0.76953192    -0.49900
C819        C  0.79075351  0.86905894  0.69207942     0.72100
O820        O  0.82801349  0.88631113  0.70397712    -0.44800
C821        C  0.75876516  0.79873243  0.77812019     0.76800
O822        O  0.86520308  0.87523310  0.75100841    -0.56600
O823        O  0.76709277  0.83406175  0.79085249    -0.46700
O824        O  0.85647733  0.91522952  0.78305780    -0.53000
C825        C  0.77860768  0.93530911  0.76073027     0.87000
O826        O  0.75879508  0.85425772  0.71019194    -0.54900
O827        O  0.76922879  0.80210111  0.75070226    -0.58200
C828        C  0.98372525  0.95190502  0.82392233    -0.00600
In829      In  0.57443739  0.64839562  0.88101723     1.36900
C830        C  0.53557477  0.56518878  0.86403961     0.79500
O831        O  0.51530773  0.64795716  0.86219271    -0.59000
O832        O  0.56049868  0.70382629  0.88702069    -0.49900
C833        C  0.57489114  0.65114609  0.94083850     0.72100
O834        O  0.54349622  0.62221994  0.92599673    -0.44800
C835        C  0.65073245  0.68622301  0.84989619     0.76800
O836        O  0.56093274  0.58002231  0.88615090    -0.56600
O837        O  0.62015318  0.69422072  0.84575011    -0.46700
O838        O  0.53071090  0.59319308  0.84996636    -0.53000
C839        C  0.52488908  0.68474317  0.87292669     0.87000
O840        O  0.60664774  0.67860959  0.92526207    -0.54900
O841        O  0.64250761  0.65845612  0.86995005    -0.58200
In842      In  0.88403866  0.75619660  0.87859993     1.36900
C843        C  0.80624962  0.73430295  0.85431692     0.79500
O844        O  0.85577590  0.71848030  0.92173011    -0.59000
O845        O  0.90132316  0.78602754  0.92481895    -0.49900
C846        C  0.93289873  0.71929692  0.86776836     0.72100
O847        O  0.89184145  0.69836607  0.86495517    -0.45400
C848        C  0.93208938  0.83099823  0.84905748     0.76800
O849        O  0.82235429  0.70953209  0.85230542    -0.56600
O850        O  0.92329983  0.83002837  0.87677286    -0.46700
O851        O  0.82789530  0.76762016  0.87055877    -0.53000
C852        C  0.87765157  0.75105187  0.93847699     0.87000
O853        O  0.94853804  0.75836784  0.87582643    -0.54900
O854        O  0.91588199  0.79391832  0.83660160    -0.58200
C855        C  0.74391929  0.75781743  0.79564518     0.88400
C856        C  0.77969884  0.76514041  0.81756862    -0.51900
C857        C  0.77077383  0.73046355  0.83484376     0.11300
C858        C  0.72495058  0.69032704  0.82880581     0.22200
C859        C  0.73470690  0.71695689  0.77731390    -0.52600
C860        C  0.72423825  0.68133531  0.79458663     0.11400
C861        C  0.70276736  0.74333268  0.81498034    -0.52100
C862        C  0.69222791  0.70768465  0.83231769     0.12000
H863        H  0.81088671  0.79545766  0.81858457     0.16500
H864        H  0.71683889  0.66159409  0.84290364     0.02200
H865        H  0.73455471  0.71573635  0.75291055     0.16800
H866        H  0.68310008  0.75915231  0.81437730     0.16600
C867        C  0.97915969  0.96384452  0.14369165    -0.00600
In868      In  0.58729663  0.88892616  0.21593067     1.36900
C869        C  0.55424544  0.92411208  0.17986159     0.79500
O870        O  0.64529877  0.95586151  0.22095325    -0.59000
O871        O  0.65476501  0.90556001  0.20171951    -0.49900
C872        C  0.58007316  0.88159436  0.27554515     0.72100
O873        O  0.56616361  0.90243708  0.26102719    -0.44800
C874        C  0.54506153  0.80966523  0.19168753     0.76800
O875        O  0.54235994  0.91525531  0.20698412    -0.56600
O876        O  0.58626528  0.83220126  0.19141468    -0.46700
O877        O  0.58344391  0.91561868  0.17141386    -0.53000
C878        C  0.67138525  0.94499362  0.20943298     0.87000
O879        O  0.59680000  0.86374277  0.25971055    -0.54900
O880        O  0.52603707  0.82604957  0.20669692    -0.58200
In881      In  0.87988210  0.56658965  0.20887891     1.36900
C882        C  0.90675509  0.51850147  0.17901942     0.79500
O883        O  0.81538753  0.50613910  0.21229901    -0.59000
O884        O  0.81570340  0.56414616  0.20002542    -0.49900
C885        C  0.88348150  0.56596922  0.26836709     0.72100
O886        O  0.89855495  0.54727810  0.25167784    -0.44800
C887        C  0.93068216  0.64663385  0.18587467     0.76800
O888        O  0.92296459  0.53663781  0.20394356    -0.56600
O889        O  0.90573493  0.61409777  0.17003001    -0.46700
O890        O  0.87783399  0.52599024  0.16915957    -0.53000
C891        C  0.79359150  0.52404598  0.20576230     0.87000
O892        O  0.86833964  0.58654090  0.25475612    -0.54900
O893        O  0.92918820  0.63847987  0.21344299    -0.58200
C894        C  0.51971475  0.76899890  0.17315043     0.88400
C895        C  0.99003288  0.77431125  0.15127767    -0.51900
C896        C  0.96440637  0.73974184  0.13344998     0.11300
C897        C  0.96936484  0.69923510  0.13915406     0.22200
C898        C  0.98551152  0.72579198  0.19101464    -0.52600
C899        C  0.96031515  0.69029297  0.17320331     0.11400
C900        C  0.54662290  0.75485845  0.15332588    -0.52100
C901        C  0.52152806  0.71874177  0.13585735     0.12000
H902        H  0.98956314  0.80482598  0.15044193     0.16500
H903        H  0.94858998  0.67069458  0.12458788     0.02200
H904        H  0.98368348  0.72490329  0.21540819     0.16800
H905        H  0.58214411  0.77090705  0.15388512     0.16600
In906      In  0.87934002  0.76743844  0.08915699     1.36900
C907        C  0.90605238  0.84338651  0.11832918     0.79500
O908        O  0.81612322  0.76730095  0.08492079    -0.59000
O909        O  0.81470516  0.71225610  0.10485450    -0.49900
C910        C  0.88045035  0.75617070  0.02992742     0.72100
O911        O  0.90033144  0.79315160  0.04233712    -0.44800
C912        C  0.93312400  0.74371994  0.11392380     0.76800
O913        O  0.91188969  0.84130411  0.09043498    -0.56600
O914        O  0.89229049  0.72248617  0.11803957    -0.46700
O915        O  0.88568101  0.80684940  0.13096286    -0.53000
C916        C  0.79351145  0.73014847  0.09630734     0.87000
O917        O  0.86168766  0.72468355  0.04771527    -0.54900
O918        O  0.94571155  0.77453334  0.09556520    -0.58200
In919      In  0.57758752  0.65310874  0.09239777     1.36900
C920        C  0.54602595  0.58129899  0.12534681     0.79500
O921        O  0.63439431  0.64116199  0.08834742    -0.59000
O922        O  0.64640605  0.70396125  0.10255003    -0.49900
C923        C  0.57240077  0.65408491  0.03259309     0.72100
O924        O  0.54554925  0.62222993  0.04812010    -0.44800
C925        C  0.54106514  0.69643110  0.11855258     0.76800
O926        O  0.53611441  0.58066882  0.09815541    -0.56600
O927        O  0.58119555  0.70861516  0.11975253    -0.46700
O928        O  0.57174366  0.61864919  0.13575087    -0.53000
C929        C  0.66188190  0.67936077  0.09654008     0.87000
O930        O  0.60021156  0.68618182  0.04753099    -0.54900
O931        O  0.51926459  0.66279180  0.10263152    -0.58200
C932        C  0.98012931  0.96310896  0.48901158    -0.00600
In933      In  0.66790185  0.55774033  0.54643143     1.36900
C934        C  0.59677435  0.52952202  0.51249322     0.79500
O935        O  0.66080428  0.61722904  0.55003409    -0.59000
O936        O  0.72221278  0.62525106  0.53557119    -0.49900
C937        C  0.67031507  0.55283090  0.60637701     0.72100
O938        O  0.63539607  0.53252136  0.59170327    -0.44800
C939        C  0.70450009  0.51566704  0.51915189     0.76800
O940        O  0.59488131  0.52007599  0.53993451    -0.56600
O941        O  0.72199462  0.55647347  0.52093387    -0.46700
O942        O  0.63501451  0.55351258  0.50246274    -0.53000
C943        C  0.69947041  0.64285844  0.54154068     0.87000
O944        O  0.70424575  0.57328952  0.59047501    -0.54900
O945        O  0.66872892  0.49526853  0.53335134    -0.58200
In946      In  0.78222167  0.85930961  0.54165346     1.36900
C947        C  0.85774151  0.88946423  0.51139888     0.79500
O948        O  0.78873552  0.79964250  0.53963788    -0.59000
O949        O  0.72470501  0.79138075  0.53730293    -0.49900
C950        C  0.78157808  0.86578590  0.60100891     0.72100
O951        O  0.81580176  0.88681478  0.58543174    -0.44800
C952        C  0.75305606  0.90777797  0.51624526     0.76800
O953        O  0.85589229  0.89387342  0.53947161    -0.56600
O954        O  0.73945297  0.86875503  0.50849233    -0.46700
O955        O  0.82092137  0.86932355  0.49879384    -0.53000
C956        C  0.74820982  0.77374648  0.53795690     0.87000
O957        O  0.74705551  0.84301738  0.58631386    -0.54900
O958        O  0.77768374  0.92029524  0.53876523    -0.58200
C959        C  0.77971959  0.99495604  0.45831806     0.88400
C960        C  0.78517612  0.96353918  0.47830800    -0.51900
C961        C  0.75036147  0.93913725  0.49644375     0.11300
C962        C  0.71212910  0.94832927  0.49299281     0.22200
C963        C  0.73724818  0.96657384  0.44090253    -0.52600
C964        C  0.70171714  0.94203018  0.45904797     0.11400
C965        C  0.75926731  0.52010487  0.48213320    -0.52100
C966        C  0.73284190  0.99815048  0.49802230     0.12000
H967        H  0.81456216  0.96066611  0.47811292     0.16500
H968        H  0.68349552  0.92838763  0.50779730     0.02200
H969        H  0.73544946  0.96613902  0.41654286     0.16800
H970        H  0.77605291  0.55549630  0.48265858     0.16600
In971      In  0.89312926  0.56756286  0.41921909     1.36900
C972        C  0.92826626  0.53295897  0.45418680     0.79500
O973        O  0.96211983  0.62386388  0.42030640    -0.59000
O974        O  0.91020501  0.63739603  0.42702740    -0.49900
C975        C  0.88481115  0.56206143  0.35987741     0.72100
O976        O  0.90493850  0.54665166  0.37372672    -0.44800
C977        C  0.81273466  0.52200028  0.44217674     0.76800
O978        O  0.92644322  0.52817596  0.42592184    -0.56600
O979        O  0.83709113  0.56233972  0.44701220    -0.46700
O980        O  0.91212060  0.55536409  0.46444628    -0.53000
C981        C  0.95094640  0.65207296  0.42518776     0.87000
O982        O  0.86777141  0.57901499  0.37629339    -0.54900
O983        O  0.82827713  0.50570349  0.42372211    -0.58200
In984      In  0.57527817  0.86533751  0.42624843     1.36900
C985        C  0.52843986  0.89153682  0.45844957     0.79500
O986        O  0.51238477  0.80258009  0.42472760    -0.59000
O987        O  0.57057899  0.80040180  0.43350868    -0.49900
C988        C  0.57701108  0.87331741  0.36706266     0.72100
O989        O  0.56837008  0.89647797  0.38463297    -0.44800
C990        C  0.65713664  0.91395708  0.44719143     0.76800
O991        O  0.53738296  0.90072521  0.43103517    -0.56600
O992        O  0.62584981  0.88676467  0.46304243    -0.46700
O993        O  0.54387055  0.86948752  0.46936287    -0.53000
C994        C  0.52962061  0.77974885  0.43014138     0.87000
O995        O  0.58550211  0.84670497  0.37969011    -0.54900
O996        O  0.64691135  0.91574182  0.42051929    -0.58200
C997        C  0.98242893  0.69763412  0.42821946    -0.11400
C998        C  0.50401560  0.73349370  0.43166910    -0.13000
C999        C  0.73034533  0.72748704  0.53774756    -0.11400
C1000       C  0.71633095  0.68880263  0.53901059    -0.13000
C1001       C  0.96288788  0.48834899  0.46331894    -0.14600
C1002       C  0.94656759  0.51314308  0.47405958    -0.29700
H1003       H  0.98252068  0.02747746  0.48300558     0.14500
H1004       H  0.94355889  0.51626216  0.49832574     0.15000
C1005       C  0.48961670  0.93260489  0.46575129    -0.14600
C1006       C  0.50395815  0.90696380  0.47702674    -0.29700
H1007       H  0.49103253  0.93743456  0.44165702     0.14500
H1008       H  0.50273933  0.90201124  0.50107773     0.15000
C1009       C  0.93859929  0.93340284  0.50709885    -0.14600
C1010       C  0.89931452  0.90776272  0.49417153    -0.29700
H1011       H  0.93977251  0.93632709  0.53138624     0.14500
H1012       H  0.89702689  0.90305938  0.47014113     0.15000
C1013       C  0.51684760  0.48891228  0.50428121    -0.14600
C1014       C  0.55780912  0.51265169  0.49313568    -0.29700
H1015       H  0.51264716  0.48562017  0.52854593     0.14500
H1016       H  0.56293626  0.51677114  0.46898468     0.15000
C1017       C  0.74683353  0.70951659  0.09850465    -0.11400
C1018       C  0.70774466  0.69434296  0.09832264    -0.13000
C1019       C  0.88280740  0.56178876  0.32765617    -0.11400
C1020       C  0.88301043  0.56351763  0.30059031    -0.13000
C1021       C  0.57776314  0.87894328  0.30781291    -0.11400
C1022       C  0.57712529  0.87679663  0.33489261    -0.13000
C1023       C  0.71693435  0.97511636  0.20558665    -0.11400
C1024       C  0.75582825  0.99825681  0.20304245    -0.13000
C1025       C  0.50253682  0.50206264  0.13211315    -0.14600
C1026       C  0.52778835  0.54199911  0.14405546    -0.29700
H1027       H  0.99827257  0.49613254  0.11144605     0.14500
H1028       H  0.53140274  0.54614678  0.16817635     0.15000
C1029       C  0.95166743  0.92382150  0.12380763    -0.14600
C1030       C  0.92347135  0.88467750  0.13565585    -0.29700
H1031       H  0.95816429  0.92580060  0.09977586     0.14500
H1032       H  0.91712471  0.88231316  0.15969218     0.15000
C1033       C  0.92135547  0.49198833  0.16193181    -0.14600
C1034       C  0.94958406  0.97625129  0.16176222    -0.29700
H1035       H  0.91606286  0.48872718  0.13768367     0.14500
H1036       H  0.94911629  0.97414696  0.18603704     0.15000
C1037       C  0.50497024  0.95219003  0.16870120    -0.14600
C1038       C  0.53446941  0.94120743  0.15913505    -0.29700
H1039       H  0.99920970  0.95365180  0.18962719     0.14500
H1040       H  0.54178259  0.94172516  0.13506932     0.15000
C1041       C  0.87661339  0.74891104  0.97072996    -0.11400
C1042       C  0.87821716  0.75065725  0.99782118    -0.13000
C1043       C  0.57247616  0.65343667  0.00025545    -0.11400
C1044       C  0.57400589  0.65273544  0.97313473    -0.13000
C1045       C  0.98652945  0.68777111  0.86324486    -0.11400
C1046       C  0.96038503  0.70036640  0.86331472    -0.13000
C1047       C  0.97188053  0.91193838  0.84342888    -0.14600
C1048       C  0.95764100  0.87167887  0.83172315    -0.29700
H1049       H  0.96935508  0.91500231  0.86764936     0.14500
H1050       H  0.96144611  0.86782304  0.80783153     0.15000
C1051       C  0.48920958  0.50285426  0.83096937    -0.14600
C1052       C  0.51489458  0.51891698  0.85522878    -0.29700
H1053       H  0.97699346  0.52038261  0.81924753     0.14500
H1054       H  0.52397136  0.49858298  0.86769776     0.15000
C1055       C  0.78529364  0.86712318  0.66014952    -0.11400
C1056       C  0.78240437  0.86662311  0.63319812    -0.13000
C1057       C  0.92471044  0.91512119  0.78464598    -0.14600
C1058       C  0.94199982  0.94327484  0.80787123    -0.29700
H1059       H  0.94245410  0.90031649  0.77444537     0.14500
H1060       H  0.92413333  0.95889194  0.81677355     0.15000
C1061       C  0.67204178  0.55705498  0.66599125    -0.11400
C1062       C  0.67123896  0.55423952  0.63882234    -0.13000
C1063       C  0.52435718  0.96717824  0.79272674    -0.14600
C1064       C  0.55981682  0.48601908  0.80814574    -0.29700
H1065       H  0.51728575  0.46981359  0.77195476     0.14500
H1066       H  0.56815969  0.97805738  0.82774797     0.15000
C1067       C  0.76500873  0.96708018  0.76434486    -0.11400
C1068       C  0.74991395  0.99101426  0.76479705    -0.13000
loop_ 
_geom_bond_atom_site_label_1 
_geom_bond_atom_site_label_2 
_geom_bond_distance 
_geom_bond_site_symmetry_2 
_ccdc_geom_bond_type 
In1           O3   2.252       .  S
In1           O4   2.262       .  S
In1           O6   2.232       .  S
In1           O8   2.251       .  S
In1           O9   2.288       .  S
In1          O10   2.274       .  S
In1          O13   2.241       .  S
In1         O279   2.202   1_545  S
C2            O8   1.254       .  A
C2           O10   1.260       .  A
C2           C59   1.476       .  S
O3           C11   1.259       .  A
O4           C11   1.264       .  A
C5            O6   1.262       .  A
C5          O279   1.258   1_545  A
C5          C534   1.415   1_545  S
C7            O9   1.263       .  A
C7           O13   1.254       .  A
C7          C263   1.479   1_545  S
C11         C260   1.443       .  S
O12        In268   2.212       .  S
O12         C272   1.257       .  A
In14         O16   2.224       .  S
In14         O17   2.222       .  S
In14         O25   2.235       .  S
In14         O19   2.234       .  S
In14         O21   2.227       .  S
In14         O22   2.246       .  S
In14         O23   2.227       .  S
In14         O26   2.231       .  S
C15          O21   1.264       .  A
C15          O23   1.259       .  A
C15         C256   1.462       .  S
O16          C24   1.259       .  A
O17          C24   1.262       .  A
C18          O25   1.258       .  A
C18          O19   1.260       .  A
C18         C254   1.428       .  S
C20          O22   1.262       .  A
C20          O26   1.260       .  A
C20          C54   1.499       .  S
C24         C266   1.421       .  S
C27         C246   1.537       .  S
C27         C257   1.520       .  S
C27        C1051   1.528       .  S
C27         C796   1.526       .  S
In28         O30   2.251       .  S
In28         O31   2.262       .  S
In28         O39   2.266       .  S
In28         O33   2.244       .  S
In28         O35   2.263       .  S
In28         O36   2.232       .  S
In28         O37   2.236       .  S
In28         O40   2.288       .  S
C29          O35   1.262       .  A
C29          O37   1.260       .  A
C29         C251   1.473       .  S
O30          C38   1.256       .  A
O31          C38   1.258       .  A
C32          O39   1.259       .  A
C32          O33   1.254       .  A
C32         C243   1.438       .  S
C34          O36   1.260       .  A
C34          O40   1.263       .  A
C34          C61   1.484       .  S
C38         C778   1.436   1_455  S
In41         O43   2.254       .  S
In41         O44   2.255       .  S
In41         O52   2.259       .  S
In41         O46   2.275       .  S
In41         O48   2.302       .  S
In41         O49   2.278       .  S
In41         O50   2.238       .  S
In41         O53   2.232       .  S
C42          O48   1.263       .  A
C42          O50   1.259       .  A
C42          C56   1.482       .  S
O43          C51   1.259       .  A
O44          C51   1.260       .  A
C45          O52   1.254       .  A
C45          O46   1.258       .  A
C45         C245   1.442       .  S
C47          O49   1.266       .  A
C47          O53   1.262       .  A
C47         C247   1.480       .  S
C51         C240   1.440       .  S
C54          C55   1.522       .  S
C54          C60   1.530       .  S
C54          C58   1.536       .  S
C55          H62   1.088       .  S
C55          C56   1.355       .  D
C56          C57   1.552       .  S
C57          C61   1.553       .  S
C57          C59   1.547       .  S
C57          H63   1.110       .  S
C58          H64   1.086       .  S
C58          C59   1.371       .  D
C60          H65   1.086       .  S
C60          C61   1.369       .  D
C66         C228   1.528       .  S
C66         C233   1.525       .  S
C66        C1025   1.528       .  S
C66         C770   1.528       .  S
In67         O69   2.237       .  S
In67         O70   2.241       .  S
In67         O78   2.270       .  S
In67         O72   2.261       .  S
In67         O74   2.267       .  S
In67         O75   2.258       .  S
In67         O76   2.242       .  S
In67         O79   2.230       .  S
C68          O74   1.263       .  A
C68          O76   1.256       .  A
C68         C237   1.475       .  S
O69          C77   1.257       .  A
O70          C77   1.258       .  A
C71          O78   1.261       .  A
C71          O72   1.260       .  A
C71         C220   1.448       .  S
C73          O75   1.260       .  A
C73          O79   1.263       .  A
C73          C93   1.502       .  S
C77         C222   1.427       .  S
In80         O82   2.227       .  S
In80         O83   2.254       .  S
In80         O91   2.250       .  S
In80         O85   2.244       .  S
In80         O87   2.247       .  S
In80         O88   2.281       .  S
In80         O89   2.248       .  S
In80         O92   2.246       .  S
C81          O87   1.261       .  A
C81          O89   1.259       .  A
C81         C232   1.474   1_545  S
O82          C90   1.255       .  A
O83          C90   1.260       .  A
C84          O91   1.261       .  A
C84          O85   1.261       .  A
C84         C219   1.438       .  S
C86          O88   1.259       .  A
C86          O92   1.259       .  A
C86          C98   1.480       .  S
C90         C490   1.427   1_545  S
C93          C99   1.536       .  S
C93         C628   1.520   1_455  S
C93         C631   1.527   1_455  S
C94         C627   1.514       .  S
C94         H101   1.089       .  S
C94          C95   1.355       .  D
C95         C111   1.485       .  S
C95          C96   1.560       .  S
C96          C98   1.550       .  S
C96         C634   1.558       .  S
C96         H102   1.110       .  S
C97         C627   1.530       .  S
C97         H103   1.087       .  S
C97          C98   1.368       .  D
C99         H104   1.086       .  S
C99         C100   1.375       .  D
C100        C124   1.485       .  S
C100        C630   1.550   1_455  S
In105       O107   2.225       .  S
In105       O108   2.245       .  S
In105       O116   2.254       .  S
In105       O110   2.251       .  S
In105       O112   2.246       .  S
In105       O113   2.310       .  S
In105       O114   2.253       .  S
In105       O117   2.215       .  S
C106        O112   1.263       .  A
C106        O114   1.261       .  A
C106        C229   1.477       .  S
O107        C115   1.256       .  A
O108        C115   1.262       .  A
C109        O116   1.260       .  A
C109        O110   1.259       .  A
C109        C241   1.439   1_554  S
C111        O113   1.263       .  A
C111        O117   1.260       .  A
C115        C216   1.426       .  S
In118       O120   2.233       .  S
In118       O121   2.238       .  S
In118       O129   2.253       .  S
In118       O123   2.266       .  S
In118       O125   2.266       .  S
In118       O126   2.234       .  S
In118       O127   2.251       .  S
In118       O130   2.302       .  S
C119        O125   1.262       .  A
C119        O127   1.259       .  A
C119        C225   1.479       .  S
O120        C128   1.258       .  A
O121        C128   1.259       .  A
C122        O129   1.256       .  A
C122        O123   1.259       .  A
C122        C242   1.439   1_554  S
C124        O126   1.254       .  A
C124        O130   1.263       .  A
C128        C217   1.425       .  S
C131        C208   1.532       .  S
C131        C467   1.530       .  S
C131        C738   1.525       .  S
C131       C1013   1.531       .  S
In132       O134   2.255       .  S
In132       O135   2.255       .  S
In132       O143   2.268       .  S
In132       O137   2.263       .  S
In132       O139   2.272       .  S
In132       O140   2.250       .  S
In132       O141   2.241       .  S
In132       O144   2.297       .  S
C133        O139   1.262       .  A
C133        O141   1.259       .  A
C133        C213   1.476       .  S
O134        C142   1.260       .  A
O135        C142   1.260       .  A
C136        O143   1.257       .  A
C136        O137   1.257       .  A
C136        C261   1.442       .  S
C138        O140   1.257       .  A
C138        O144   1.260       .  A
C138        C432   1.487       .  S
C142        C199   1.440       .  S
In145       O147   2.248       .  S
In145       O148   2.263       .  S
In145       O156   2.248       .  S
In145       O150   2.242       .  S
In145       O152   2.253       .  S
In145       O153   2.284       .  S
In145       O154   2.250       .  S
In145       O157   2.232       .  S
C146        O152   1.263       .  A
C146        O154   1.263       .  A
C146        C209   1.478       .  S
O147        C155   1.256       .  A
O148        C155   1.260       .  A
C149        O156   1.257       .  A
C149        O150   1.256       .  A
C149        C255   1.429       .  S
C151        O153   1.261       .  A
C151        O157   1.260       .  A
C151        C160   1.475       .  S
C155        C198   1.439       .  S
C158        C443   1.501       .  S
C158        C159   1.516       .  S
C158        C162   1.534       .  S
C158        C431   1.532       .  S
C159        H166   1.089       .  S
C159        C160   1.353       .  D
C160        C161   1.554       .  S
C161        C165   1.557       .  S
C161        C163   1.549       .  S
C161        H167   1.110       .  S
C162        H168   1.086       .  S
C162        C163   1.371       .  D
C163        C189   1.482       .  S
C164        C425   1.531       .  S
C164        H169   1.086       .  S
C164        C432   1.373       .  D
C165        C405   1.488       .  S
C165        C431   1.371       .  D
In170       O172   2.233       .  S
In170       O173   2.234       .  S
In170       O181   2.250       .  S
In170       O175   2.258       .  S
In170       O177   2.266   1_545  S
In170       O178   2.243       .  S
In170       O179   2.243       .  S
In170       O182   2.241       .  S
C171        O177   1.263   1_545  A
C171        O179   1.258       .  A
C171        C201   1.477   1_545  S
O172        C180   1.257       .  A
O173        C180   1.260       .  A
C174        O181   1.257       .  A
C174        O175   1.259       .  A
C174        C218   1.438       .  S
C176        O178   1.261       .  A
C176        O182   1.261       .  A
C176        C425   1.499       .  S
C180        C196   1.427       .  S
In183       O185   2.234       .  S
In183       O186   2.262       .  S
In183       O194   2.263       .  S
In183       O188   2.253       .  S
In183       O190   2.252       .  S
In183       O191   2.281       .  S
In183       O192   2.243       .  S
In183       O195   2.259       .  S
C184        O190   1.262       .  A
C184        O192   1.258       .  A
C184        C205   1.472       .  S
O185        C193   1.255       .  A
O186        C193   1.261       .  A
C187        O194   1.264       .  A
C187        O188   1.263       .  A
C187        C221   1.448       .  S
C189        O191   1.258       .  A
C189        O195   1.258       .  A
C193        C197   1.432   1_455  S
C196        C731   1.201       .  T
C197        C730   1.204       .  T
C198        C199   1.208       .  T
C200        C398   1.528       .  S
C200        H469   1.090   1_565  S
C200        C201   1.352       .  D
C201        H203   1.086       .  S
H202        C467   1.087       .  S
C204        C665   1.526       .  S
C204        H206   1.084       .  S
C204        C205   1.346   1_655  D
C205        H207   1.083   1_455  S
C208        H210   1.089       .  S
C208        C209   1.347       .  D
C209        H211   1.088       .  S
C212        C932   1.536   1_455  S
C212        H214   1.087       .  S
C212        C213   1.349   1_565  D
C213        H215   1.086       .  S
C216        C217   1.200       .  T
C218        C219   1.207       .  T
C220        C221   1.213       .  T
C222        C223   1.200       .  T
C223        C357   1.426       .  S
C224        C867   1.534   1_445  S
C224        H760   1.087   1_545  S
C224        C225   1.348       .  D
C225        H227   1.087       .  S
H226        C758   1.087   1_565  S
C228        H230   1.087       .  S
C228        C229   1.345       .  D
C229        H231   1.087       .  S
C232        H234   1.087       .  S
C232        C500   1.345       .  D
C233        H235   1.076       .  S
C233        C499   1.345       .  D
C236        C600   1.529       .  S
C236        H772   1.086       .  S
C236        C237   1.343   1_655  D
C237        H239   1.085       .  S
H238        C770   1.082       .  S
C240        C241   1.208       .  T
C242        C243   1.208       .  T
C244        C572   1.441       .  S
C244        C245   1.209       .  T
C246        H248   1.086       .  S
C246        C247   1.349       .  D
C247        H249   1.087       .  S
C250        C828   1.536       .  S
C250        H786   1.086   1_655  S
C250        C251   1.351   1_665  D
C251        H253   1.086       .  S
H252        C784   1.086       .  S
C254        C255   1.202       .  T
C256        H258   1.086       .  S
C256        C257   1.341       .  D
C257        H259   1.087       .  S
C260        C261   1.210       .  T
C262        C561   1.528   1_455  S
C262        H531   1.089       .  S
C262        C530   1.343       .  D
C263        H532   1.084       .  S
C263        C529   1.347       .  D
H264        C529   1.084       .  S
H265        C530   1.084       .  S
C266        C267   1.197       .  T
C267        C272   1.420       .  S
In268       O270   2.248       .  S
In268       O271   2.258       .  S
In268       O273   2.241       .  S
In268       O275   2.266       .  S
In268       O276   2.249       .  S
In268       O277   2.263       .  S
In268       O280   2.246       .  S
C269        O275   1.254       .  A
C269        O277   1.259       .  A
C269        C326   1.478       .  S
O270        C278   1.260       .  A
O271        C278   1.262       .  A
C272        O273   1.260       .  A
C274        O276   1.263       .  A
C274        O280   1.257       .  A
C274        C530   1.473       .  S
C278        C527   1.440       .  S
In281       O283   2.220       .  S
In281       O284   2.232       .  S
In281       O292   2.257       .  S
In281       O286   2.236       .  S
In281       O288   2.251       .  S
In281       O289   2.251       .  S
In281       O290   2.250       .  S
In281       O293   2.218       .  S
C282        O288   1.261       .  A
C282        O290   1.257       .  A
C282        C523   1.475       .  S
O283        C291   1.256       .  A
O284        C291   1.258       .  A
C285        O292   1.261       .  A
C285        O286   1.259       .  A
C285        C521   1.436       .  S
C287        O289   1.261       .  A
C287        O293   1.261       .  A
C287        C321   1.496       .  S
C291        C533   1.417       .  S
C294        C513   1.535       .  S
C294        C784   1.533       .  S
C294        C524   1.528       .  S
C294       C1063   1.533       .  S
In295       O297   2.244       .  S
In295       O298   2.261       .  S
In295       O306   2.268       .  S
In295       O300   2.261       .  S
In295       O302   2.246       .  S
In295       O303   2.261       .  S
In295       O304   2.250       .  S
In295       O307   2.287       .  S
C296        O302   1.262       .  A
C296        O304   1.260       .  A
C296        C518   1.472       .  S
O297        C305   1.258       .  A
O298        C305   1.258       .  A
C299        O306   1.260       .  A
C299        O300   1.258       .  A
C299        C510   1.446       .  S
C301        O303   1.258       .  A
C301        O307   1.257       .  A
C301        C328   1.486       .  S
C305       C1045   1.435   1_455  S
In308       O310   2.268       .  S
In308       O311   2.259       .  S
In308       O319   2.237       .  S
In308       O313   2.261       .  S
In308       O315   2.305       .  S
In308       O316   2.255       .  S
In308       O317   2.238       .  S
In308       O320   2.266       .  S
C309        O315   1.263       .  A
C309        O317   1.261       .  A
C309        C323   1.486       .  S
O310        C318   1.261       .  A
O311        C318   1.259       .  A
C312        O319   1.257       .  A
C312        O313   1.264       .  A
C312        C512   1.438       .  S
C314        O316   1.263       .  A
C314        O320   1.262       .  A
C314        C514   1.485       .  S
C318        C507   1.446       .  S
C321        C322   1.521       .  S
C321        C327   1.533       .  S
C321        C325   1.531       .  S
C322        H329   1.089       .  S
C322        C323   1.355       .  D
C323        C324   1.556       .  S
C324        C328   1.557       .  S
C324        C326   1.550       .  S
C324        H330   1.110       .  S
C325        H331   1.087       .  S
C325        C326   1.367       .  D
C327        H332   1.086       .  S
C327        C328   1.371       .  D
C333        C758   1.535   1_565  S
C333        C495   1.537       .  S
C333        C500   1.528       .  S
C333       C1037   1.522       .  S
In334       O336   2.237       .  S
In334       O337   2.235       .  S
In334       O345   2.256       .  S
In334       O339   2.268       .  S
In334       O341   2.262       .  S
In334       O342   2.257       .  S
In334       O343   2.250       .  S
In334       O346   2.234       .  S
C335        O341   1.265       .  A
C335        O343   1.258       .  A
C335        C504   1.480       .  S
O336        C344   1.258       .  A
O337        C344   1.259       .  A
C338        O345   1.258       .  A
C338        O339   1.260       .  A
C338        C487   1.444       .  S
C340        O342   1.260       .  A
C340        O346   1.263       .  A
C340        C360   1.503       .  S
C344        C489   1.428       .  S
In347       O349   2.219       .  S
In347       O350   2.253       .  S
In347       O358   2.248       .  S
In347       O352   2.249       .  S
In347       O354   2.244       .  S
In347       O355   2.261       .  S
In347       O356   2.245       .  S
In347       O359   2.262       .  S
C348        O354   1.262       .  A
C348        O356   1.257       .  A
C348        C499   1.472       .  S
O349        C357   1.255       .  A
O350        C357   1.260       .  A
C351        O358   1.262       .  A
C351        O352   1.262       .  A
C351        C486   1.440       .  S
C353        O355   1.256       .  A
C353        O359   1.259       .  A
C353        C365   1.476       .  S
C360        C895   1.519   1_455  S
C360        C366   1.538       .  S
C360        C898   1.534   1_455  S
C361        C894   1.523       .  S
C361        H368   1.089       .  S
C361        C362   1.355       .  D
C362        C378   1.471       .  S
C362        C363   1.544       .  S
C363        C901   1.549       .  S
C363        C365   1.545       .  S
C363        H369   1.111       .  S
C364        C894   1.533       .  S
C364        H370   1.086       .  S
C364        C365   1.368       .  D
C366        H371   1.086       .  S
C366        C367   1.374       .  D
C367        C391   1.492       .  S
C367        C897   1.555   1_455  S
In372       O374   2.243       .  S
In372       O375   2.267       .  S
In372       O383   2.267       .  S
In372       O377   2.261       .  S
In372       O379   2.266       .  S
In372       O380   2.274       .  S
In372       O381   2.261       .  S
In372       O384   2.236       .  S
C373        O379   1.264       .  A
C373        O381   1.263       .  A
C373        C496   1.486       .  S
O374        C382   1.256       .  A
O375        C382   1.259       .  A
C376        O383   1.259       .  A
C376        O377   1.258       .  A
C376        C508   1.446   1_554  S
C378        O380   1.261       .  A
C378        O384   1.260       .  A
C382        C483   1.436       .  S
In385       O387   2.252       .  S
In385       O388   2.246       .  S
In385       O396   2.264       .  S
In385       O390   2.264       .  S
In385       O392   2.251       .  S
In385       O393   2.259       .  S
In385       O394   2.248       .  S
In385       O397   2.293       .  S
C386        O392   1.262       .  A
C386        O394   1.257       .  A
C386        C492   1.473       .  S
O387        C395   1.259       .  A
O388        C395   1.260       .  A
C389        O396   1.260       .  A
C389        O390   1.260       .  A
C389        C509   1.446       .  S
C391        O393   1.260       .  A
C391        O397   1.261       .  A
C395        C484   1.436       .  S
C398       C1005   1.523       .  S
C398        C475   1.528       .  S
C398        C746   1.533       .  S
In399       O401   2.254       .  S
In399       O402   2.253       .  S
In399       O410   2.257       .  S
In399       O404   2.259       .  S
In399       O406   2.252       .  S
In399       O407   2.237       .  S
In399       O408   2.251       .  S
In399       O411   2.298       .  S
C400        O406   1.262       .  A
C400        O408   1.260       .  A
C400        C480   1.475       .  S
O401        C409   1.257       .  A
O402        C409   1.258       .  A
C403        O410   1.257       .  A
C403        O404   1.257       .  A
C403        C528   1.439       .  S
C405        O407   1.258       .  A
C405        O411   1.262       .  A
C409        C466   1.435       .  S
In412       O414   2.233       .  S
In412       O415   2.254       .  S
In412       O423   2.256       .  S
In412       O417   2.243       .  S
In412       O419   2.248       .  S
In412       O420   2.298       .  S
In412       O421   2.259       .  S
In412       O424   2.235       .  S
C413        O419   1.261       .  A
C413        O421   1.260       .  A
C413        C476   1.477       .  S
O414        C422   1.258       .  A
O415        C422   1.262       .  A
C416        O423   1.259       .  A
C416        O417   1.257       .  A
C416        C522   1.436       .  S
C418        O420   1.260       .  A
C418        O424   1.259       .  A
C418        C427   1.481       .  S
C422        C465   1.434       .  S
C425        C426   1.518   1_545  S
C425        C429   1.535   1_545  S
C426        H433   1.089       .  S
C426        C427   1.355       .  D
C427        C428   1.556       .  S
C428        C432   1.557   1_565  S
C428        C430   1.552       .  S
C428        H434   1.110       .  S
C429        H435   1.086       .  S
C429        C430   1.367       .  D
C430        C456   1.486       .  S
C431        H436   1.086       .  S
In437       O439   2.224       .  S
In437       O440   2.226       .  S
In437       O448   2.249       .  S
In437       O442   2.262       .  S
In437       O444   2.260       .  S
In437       O445   2.252       .  S
In437       O446   2.247       .  S
In437       O449   2.243       .  S
C438        O444   1.263       .  A
C438        O446   1.257       .  A
C438        C468   1.476       .  S
O439        C447   1.259       .  A
O440        C447   1.261       .  A
C441        O448   1.257       .  A
C441        O442   1.260       .  A
C441        C485   1.440       .  S
C443        O445   1.259       .  A
C443        O449   1.261       .  A
C447        C463   1.423       .  S
In450       O452   2.237       .  S
In450       O453   2.269       .  S
In450       O461   2.251       .  S
In450       O455   2.260       .  S
In450       O457   2.263       .  S
In450       O458   2.287       .  S
In450       O459   2.237       .  S
In450       O462   2.266       .  S
C451        O457   1.262       .  A
C451        O459   1.259       .  A
C451        C472   1.474       .  S
O452        C460   1.254       .  A
O453        C460   1.260       .  A
C454        O461   1.261       .  A
C454        O455   1.263       .  A
C454        C488   1.444       .  S
C456        O458   1.256       .  A
C456        O462   1.259       .  A
C460        C464   1.435       .  S
C463        C998   1.199       .  T
C464        C997   1.206   1_455  T
C465        C466   1.205       .  T
C467        C468   1.344       .  D
C468        H470   1.086       .  S
C471        C932   1.533       .  S
C471        H473   1.083       .  S
C471        C472   1.348   1_655  D
C472        H474   1.083       .  S
C475        H477   1.087       .  S
C475        C476   1.346       .  D
C476        H478   1.084       .  S
C479        C665   1.530   1_455  S
C479        H481   1.090       .  S
C479        C480   1.347       .  D
C480        H482   1.089       .  S
C483        C484   1.206       .  T
C485        C486   1.209       .  T
C487        C488   1.211       .  T
C489        C490   1.201       .  T
C491        C600   1.528   1_455  S
C491       H1027   1.083   1_455  S
C491        C492   1.343       .  D
C492        H494   1.082       .  S
H493       C1025   1.084       .  S
C495        H497   1.085       .  S
C495        C496   1.353       .  D
C496        H498   1.084       .  S
C499        H501   1.074       .  S
C500        H502   1.089       .  S
C503        C867   1.533   1_455  S
C503       H1039   1.082   1_455  S
C503        C504   1.344       .  D
C504        H506   1.081       .  S
H505       C1037   1.096       .  S
C507        C508   1.212       .  T
C509        C510   1.212   1_554  T
C511        C839   1.438       .  S
C511        C512   1.207       .  T
C513        H515   1.087       .  S
C513        C514   1.349       .  D
C514        H516   1.086       .  S
C517        C561   1.531       .  S
C517       H1053   1.089       .  S
C517        C518   1.349   1_655  D
C518        H520   1.086       .  S
H519       C1051   1.088       .  S
C521        C522   1.206       .  T
C523        H525   1.087       .  S
C523        C524   1.345       .  D
C524        H526   1.088       .  S
C527        C528   1.208       .  T
C529        C828   1.536   1_455  S
C533        C534   1.194       .  T
In535       O537   2.268       .  S
In535       O538   2.273       .  S
In535       O813   2.231   1_545  S
In535       O540   2.260       .  S
In535       O542   2.291       .  S
In535       O543   2.275       .  S
In535       O544   2.266       .  S
In535       O547   2.242       .  S
C536        O542   1.256       .  A
C536        O544   1.260       .  A
C536        C593   1.488       .  S
O537        C545   1.261       .  A
O538        C545   1.262       .  A
C539        O813   1.256   1_545  A
C539        O540   1.259       .  A
C539       C1068   1.430   1_545  S
C541        O543   1.264       .  A
C541        O547   1.258       .  A
C541        C797   1.479   1_545  S
C545        C794   1.451       .  S
O546       In802   2.225       .  S
O546        C806   1.256       .  A
In548       O550   2.232       .  S
In548       O551   2.238       .  S
In548       O559   2.241       .  S
In548       O553   2.243       .  S
In548       O555   2.245       .  S
In548       O556   2.250       .  S
In548       O557   2.239       .  S
In548       O560   2.236       .  S
C549        O555   1.262       .  A
C549        O557   1.259       .  A
C549        C790   1.470       .  S
O550        C558   1.257       .  A
O551        C558   1.259       .  A
C552        O559   1.257       .  A
C552        O553   1.256       .  A
C552        C788   1.427       .  S
C554        O556   1.259       .  A
C554        O560   1.262       .  A
C554        C588   1.500       .  S
C558        C800   1.425       .  S
C561        C780   1.532       .  S
C561        C791   1.527       .  S
In562       O564   2.254       .  S
In562       O565   2.264       .  S
In562       O573   2.272       .  S
In562       O567   2.270       .  S
In562       O569   2.262       .  S
In562       O570   2.241       .  S
In562       O571   2.246       .  S
In562       O574   2.307       .  S
C563        O569   1.264       .  A
C563        O571   1.258       .  A
C563        C785   1.477       .  S
O564        C572   1.258       .  A
O565        C572   1.260       .  A
C566        O573   1.258       .  A
C566        O567   1.257       .  A
C566        C777   1.447       .  S
C568        O570   1.259       .  A
C568        O574   1.262       .  A
C568        C595   1.493       .  S
In575       O577   2.264       .  S
In575       O578   2.254       .  S
In575       O586   2.242       .  S
In575       O580   2.256       .  S
In575       O582   2.304       .  S
In575       O583   2.267       .  S
In575       O584   2.228       .  S
In575       O587   2.259       .  S
C576        O582   1.261       .  A
C576        O584   1.262       .  A
C576        C590   1.485       .  S
O577        C585   1.260       .  A
O578        C585   1.258       .  A
C579        O586   1.257       .  A
C579        O580   1.261       .  A
C579        C779   1.436       .  S
C581        O583   1.262       .  A
C581        O587   1.259       .  A
C581        C781   1.481       .  S
C585        C774   1.442       .  S
C588        C589   1.514       .  S
C588        C594   1.533       .  S
C588        C592   1.529       .  S
C589        H596   1.089       .  S
C589        C590   1.354       .  D
C590        C591   1.563       .  S
C591        C595   1.560       .  S
C591        C593   1.559       .  S
C591        H597   1.110       .  S
C592        H598   1.086       .  S
C592        C593   1.368       .  D
C594        H599   1.086       .  S
C594        C595   1.372       .  D
C600        C762   1.530       .  S
C600        C767   1.526       .  S
In601       O603   2.234       .  S
In601       O604   2.232       .  S
In601       O612   2.256       .  S
In601       O606   2.260       .  S
In601       O608   2.254       .  S
In601       O609   2.259       .  S
In601       O610   2.243       .  S
In601       O613   2.237       .  S
C602        O608   1.264       .  A
C602        O610   1.259       .  A
C602        C771   1.475       .  S
O603        C611   1.257       .  A
O604        C611   1.260       .  A
C605        O612   1.259       .  A
C605        O606   1.259       .  A
C605        C754   1.441       .  S
C607        O609   1.260       .  A
C607        O613   1.262       .  A
C607        C627   1.503       .  S
C611        C756   1.426       .  S
In614       O616   2.228       .  S
In614       O617   2.244       .  S
In614       O625   2.240       .  S
In614       O619   2.256       .  S
In614       O621   2.247       .  S
In614       O622   2.263       .  S
In614       O623   2.255       .  S
In614       O626   2.239       .  S
C615        O621   1.260       .  A
C615        O623   1.257       .  A
C615        C766   1.475   1_545  S
O616        C624   1.256       .  A
O617        C624   1.259       .  A
C618        O625   1.260       .  A
C618        O619   1.263       .  A
C618        C753   1.439       .  S
C620        O622   1.258       .  A
C620        O626   1.259       .  A
C620        C632   1.472       .  S
C624       C1024   1.425   1_545  S
C627        C633   1.534       .  S
C628        H635   1.089       .  S
C628        C629   1.356       .  D
C629        C645   1.475       .  S
C629        C630   1.549       .  S
C630        C632   1.547       .  S
C630        H636   1.111       .  S
C631        H637   1.087       .  S
C631        C632   1.366       .  D
C633        H638   1.086       .  S
C633        C634   1.375       .  D
C634        C658   1.490       .  S
In639       O641   2.225       .  S
In639       O642   2.243       .  S
In639       O650   2.259       .  S
In639       O644   2.258       .  S
In639       O646   2.245       .  S
In639       O647   2.285       .  S
In639       O648   2.260       .  S
In639       O651   2.221       .  S
C640        O646   1.264       .  A
C640        O648   1.260       .  A
C640        C763   1.480       .  S
O641        C649   1.257       .  A
O642        C649   1.261       .  A
C643        O650   1.259       .  A
C643        O644   1.259       .  A
C643        C775   1.443   1_554  S
C645        O647   1.261       .  A
C645        O651   1.260       .  A
C649        C750   1.427       .  S
In652       O654   2.243       .  S
In652       O655   2.244       .  S
In652       O663   2.269       .  S
In652       O657   2.267       .  S
In652       O659   2.265       .  S
In652       O660   2.248       .  S
In652       O661   2.262       .  S
In652       O664   2.302       .  S
C653        O659   1.260       .  A
C653        O661   1.259       .  A
C653        C759   1.479       .  S
O654        C662   1.259       .  A
O655        C662   1.258       .  A
C656        O663   1.257       .  A
C656        O657   1.258       .  A
C656        C776   1.446   1_554  S
C658        O660   1.256       .  A
C658        O664   1.261       .  A
C662        C751   1.429       .  S
C665       C1001   1.527       .  S
C665        C742   1.528       .  S
In666       O668   2.242       .  S
In666       O669   2.248       .  S
In666       O677   2.269       .  S
In666       O671   2.261       .  S
In666       O673   2.250       .  S
In666       O674   2.253       .  S
In666       O675   2.257       .  S
In666       O678   2.273   1_545  S
C667        O673   1.261       .  A
C667        O675   1.258       .  A
C667        C747   1.476       .  S
O668        C676   1.257       .  A
O669        C676   1.259       .  A
C670        O677   1.261       .  A
C670        O671   1.260       .  A
C670        C795   1.450       .  S
C672        O674   1.261       .  A
C672        O678   1.261   1_545  A
C672        C966   1.484   1_545  S
C676        C733   1.430       .  S
In679       O681   2.226       .  S
In679       O682   2.252       .  S
In679       O690   2.242       .  S
In679       O684   2.231       .  S
In679       O686   2.238       .  S
In679       O687   2.268       .  S
In679       O688   2.261       .  S
In679       O691   2.239       .  S
C680        O686   1.259       .  A
C680        O688   1.262       .  A
C680        C743   1.476       .  S
O681        C689   1.256       .  A
O682        C689   1.260       .  A
C683        O690   1.259       .  A
C683        O684   1.256       .  A
C683        C789   1.427       .  S
C685        O687   1.259       .  A
C685        O691   1.258       .  A
C685        C694   1.466       .  S
C689        C732   1.429       .  S
C692        C977   1.505       .  S
C692        C693   1.519       .  S
C692        C965   1.528       .  S
C692        C696   1.539       .  S
C693        H700   1.088       .  S
C693        C694   1.355       .  D
C694        C695   1.546       .  S
C695        C699   1.550       .  S
C695        C697   1.549       .  S
C695        H701   1.111       .  S
C696        H702   1.086       .  S
C696        C697   1.375       .  D
C697        C723   1.483       .  S
C698        C959   1.536   1_545  S
C698        H703   1.086       .  S
C698        C966   1.370   1_545  D
C699        C939   1.480       .  S
C699        C965   1.366       .  D
In704       O706   2.237       .  S
In704       O707   2.245       .  S
In704       O715   2.259       .  S
In704       O709   2.259       .  S
In704       O711   2.243       .  S
In704       O712   2.255       .  S
In704       O713   2.260       .  S
In704       O716   2.252       .  S
C705        O711   1.261       .  A
C705        O713   1.261       .  A
C705        C735   1.475   1_545  S
O706        C714   1.258       .  A
O707        C714   1.261       .  A
C708        O715   1.258       .  A
C708        O709   1.256       .  A
C708        C752   1.439       .  S
C710        O712   1.258       .  A
C710        O716   1.259       .  A
C710        C959   1.503   1_545  S
C714        C730   1.432       .  S
In717       O719   2.231       .  S
In717       O720   2.253       .  S
In717       O728   2.251       .  S
In717       O722   2.248       .  S
In717       O724   2.244       .  S
In717       O725   2.273       .  S
In717       O726   2.258       .  S
In717       O729   2.264       .  S
C718        O724   1.261       .  A
C718        O726   1.258       .  A
C718        C739   1.474       .  S
O719        C727   1.256       .  A
O720        C727   1.260       .  A
C721        O728   1.262       .  A
C721        O722   1.262       .  A
C721        C755   1.441       .  S
C723        O725   1.258       .  A
C723        O729   1.258       .  A
C727        C731   1.427       .  S
C732        C733   1.202       .  T
C734        C932   1.533       .  S
C734       H1003   1.086   1_565  S
C734        C735   1.350       .  D
C735        H737   1.081       .  S
H736       C1001   1.092       .  S
C738        H740   1.087       .  S
C738        C739   1.344       .  D
C739        H741   1.086       .  S
C742        H744   1.090       .  S
C742        C743   1.348       .  D
C743        H745   1.089       .  S
C746        H748   1.088       .  S
C746        C747   1.348   1_565  D
C747        H749   1.087       .  S
C750        C751   1.201       .  T
C752        C753   1.208       .  T
C754        C755   1.209       .  T
C756        C757   1.200       .  T
C757        C891   1.425       .  S
C758        C759   1.350       .  D
C759        H761   1.087       .  S
C762        H764   1.085       .  S
C762        C763   1.346       .  D
C763        H765   1.085       .  S
C766        H768   1.083       .  S
C766       C1034   1.346       .  D
C767        H769   1.093       .  S
C767       C1033   1.344       .  D
C770        C771   1.343       .  D
C771        H773   1.082       .  S
C774        C775   1.210       .  T
C776        C777   1.212       .  T
C778        C779   1.206       .  T
C780        H782   1.085       .  S
C780        C781   1.348       .  D
C781        H783   1.084       .  S
C784        C785   1.345   1_565  D
C785        H787   1.085       .  S
C788        C789   1.201       .  T
C790        H792   1.089       .  S
C790        C791   1.343       .  D
C791        H793   1.090       .  S
C794        C795   1.215       .  T
C796       H1065   1.088       .  S
C796       C1064   1.343       .  D
C797       H1066   1.088       .  S
C797       C1063   1.345       .  D
H798       C1063   1.089       .  S
H799       C1064   1.084       .  S
C800        C801   1.200       .  T
C801        C806   1.425       .  S
In802       O804   2.252       .  S
In802       O805   2.257       .  S
In802       O807   2.243       .  S
In802       O809   2.271       .  S
In802       O810   2.252       .  S
In802       O811   2.261       .  S
In802       O814   2.241       .  S
C803        O809   1.257       .  A
C803        O811   1.260       .  A
C803        C860   1.481       .  S
O804        C812   1.261       .  A
O805        C812   1.263       .  A
C806        O807   1.261       .  A
C808        O810   1.262       .  A
C808        O814   1.257       .  A
C808       C1064   1.470       .  S
C812       C1061   1.444       .  S
In815       O817   2.238       .  S
In815       O818   2.239       .  S
In815       O826   2.244       .  S
In815       O820   2.238       .  S
In815       O822   2.248       .  S
In815       O823   2.236       .  S
In815       O824   2.253       .  S
In815       O827   2.255       .  S
C816        O822   1.259       .  A
C816        O824   1.259       .  A
C816       C1057   1.470       .  S
O817        C825   1.258       .  A
O818        C825   1.260       .  A
C819        O826   1.260       .  A
C819        O820   1.260       .  A
C819       C1055   1.433       .  S
C821        O823   1.260       .  A
C821        O827   1.259       .  A
C821        C855   1.498       .  S
C825       C1067   1.430       .  S
C828       C1047   1.538       .  S
C828       C1058   1.529       .  S
In829       O831   2.248       .  S
In829       O832   2.257       .  S
In829       O840   2.258       .  S
In829       O834   2.244       .  S
In829       O836   2.235       .  S
In829       O837   2.255       .  S
In829       O838   2.254       .  S
In829       O841   2.287       .  S
C830        O836   1.259       .  A
C830        O838   1.263       .  A
C830       C1052   1.471       .  S
O831        C839   1.258       .  A
O832        C839   1.260       .  A
C833        O840   1.261       .  A
C833        O834   1.257       .  A
C833       C1044   1.438       .  S
C835        O837   1.258       .  A
C835        O841   1.257       .  A
C835        C862   1.483       .  S
In842       O844   2.270       .  S
In842       O845   2.246       .  S
In842       O853   2.235       .  S
In842       O847   2.268       .  S
In842       O849   2.293       .  S
In842       O850   2.268       .  S
In842       O851   2.240       .  S
In842       O854   2.248       .  S
C843        O849   1.260       .  A
C843        O851   1.260       .  A
C843        C857   1.480       .  S
O844        C852   1.258       .  A
O845        C852   1.255       .  A
C846        O853   1.255       .  A
C846        O847   1.261       .  A
C846       C1046   1.435       .  S
C848        O850   1.264       .  A
C848        O854   1.263       .  A
C848       C1048   1.483       .  S
C852       C1041   1.437       .  S
C855        C856   1.520       .  S
C855        C861   1.529       .  S
C855        C859   1.538       .  S
C856        H863   1.088       .  S
C856        C857   1.354       .  D
C857        C858   1.552       .  S
C858        C862   1.557       .  S
C858        C860   1.549       .  S
C858        H864   1.111       .  S
C859        H865   1.086       .  S
C859        C860   1.369       .  D
C861        H866   1.086       .  S
C861        C862   1.371       .  D
C867       C1029   1.532       .  S
C867       C1034   1.530       .  S
In868       O870   2.238       .  S
In868       O871   2.227       .  S
In868       O879   2.252       .  S
In868       O873   2.255       .  S
In868       O875   2.242       .  S
In868       O876   2.253       .  S
In868       O877   2.242       .  S
In868       O880   2.233       .  S
C869        O875   1.263       .  A
C869        O877   1.257       .  A
C869       C1038   1.469       .  S
O870        C878   1.259       .  A
O871        C878   1.259       .  A
C872        O879   1.259       .  A
C872        O873   1.259       .  A
C872       C1021   1.439       .  S
C874        O876   1.260       .  A
C874        O880   1.261       .  A
C874        C894   1.501       .  S
C878       C1023   1.425       .  S
In881       O883   2.217       .  S
In881       O884   2.258       .  S
In881       O892   2.246       .  S
In881       O886   2.248       .  S
In881       O888   2.248       .  S
In881       O889   2.271       .  S
In881       O890   2.239       .  S
In881       O893   2.263       .  S
C882        O888   1.265       .  A
C882        O890   1.259       .  A
C882       C1033   1.472       .  S
O883        C891   1.253       .  A
O884        C891   1.260       .  A
C885        O892   1.261       .  A
C885        O886   1.262       .  A
C885       C1020   1.437       .  S
C887        O889   1.257       .  A
C887        O893   1.259       .  A
C887        C899   1.482       .  S
C894        C900   1.536       .  S
C895        H902   1.089       .  S
C895        C896   1.353       .  D
C896        C912   1.475       .  S
C896        C897   1.552       .  S
C897        C899   1.548       .  S
C897        H903   1.110       .  S
C898        H904   1.086       .  S
C898        C899   1.369       .  D
C900        H905   1.086       .  S
C900        C901   1.372       .  D
C901        C925   1.481       .  S
In906       O908   2.234       .  S
In906       O909   2.246       .  S
In906       O917   2.255       .  S
In906       O911   2.249       .  S
In906       O913   2.271       .  S
In906       O914   2.278       .  S
In906       O915   2.253       .  S
In906       O918   2.244       .  S
C907        O913   1.262       .  A
C907        O915   1.260       .  A
C907       C1030   1.480       .  S
O908        C916   1.259       .  A
O909        C916   1.260       .  A
C910        O917   1.258       .  A
C910        O911   1.258       .  A
C910       C1042   1.437   1_554  S
C912        O914   1.259       .  A
C912        O918   1.260       .  A
C916       C1017   1.430       .  S
In919       O921   2.244       .  S
In919       O922   2.231       .  S
In919       O930   2.255       .  S
In919       O924   2.263       .  S
In919       O926   2.246       .  S
In919       O927   2.244       .  S
In919       O928   2.250       .  S
In919       O931   2.282       .  S
C920        O926   1.261       .  A
C920        O928   1.258       .  A
C920       C1026   1.473       .  S
O921        C929   1.260       .  A
O922        C929   1.259       .  A
C923        O930   1.256       .  A
C923        O924   1.258       .  A
C923       C1043   1.439       .  S
C925        O927   1.257       .  A
C925        O931   1.260       .  A
C929       C1018   1.430       .  S
C932       C1009   1.533       .  S
In933       O935   2.242       .  S
In933       O936   2.248       .  S
In933       O944   2.263       .  S
In933       O938   2.265       .  S
In933       O940   2.251       .  S
In933       O941   2.221       .  S
In933       O942   2.254       .  S
In933       O945   2.290       .  S
C934        O940   1.263       .  A
C934        O942   1.260       .  A
C934       C1014   1.478       .  S
O935        C943   1.258       .  A
O936        C943   1.259       .  A
C937        O944   1.257       .  A
C937        O938   1.259       .  A
C937       C1062   1.444       .  S
C939        O941   1.258       .  A
C939        O945   1.261       .  A
C943       C1000   1.431       .  S
In946       O948   2.234       .  S
In946       O949   2.250       .  S
In946       O957   2.250       .  S
In946       O951   2.237       .  S
In946       O953   2.251       .  S
In946       O954   2.267       .  S
In946       O955   2.254       .  S
In946       O958   2.247       .  S
C947        O953   1.261       .  A
C947        O955   1.262       .  A
C947       C1010   1.478       .  S
O948        C956   1.257       .  A
O949        C956   1.261       .  A
C950        O957   1.259       .  A
C950        O951   1.258       .  A
C950       C1056   1.433       .  S
C952        O954   1.259       .  A
C952        O958   1.258       .  A
C952        C961   1.467       .  S
C956        C999   1.431       .  S
C959        C960   1.520       .  S
C959        C963   1.536       .  S
C960        H967   1.088       .  S
C960        C961   1.355       .  D
C961        C962   1.544       .  S
C962        C966   1.549       .  S
C962        C964   1.546       .  S
C962        H968   1.111       .  S
C963        H969   1.086       .  S
C963        C964   1.371       .  D
C964        C990   1.478       .  S
C965        H970   1.086       .  S
In971       O973   2.247       .  S
In971       O974   2.255       .  S
In971       O982   2.246       .  S
In971       O976   2.248       .  S
In971       O978   2.248       .  S
In971       O979   2.241       .  S
In971       O980   2.245       .  S
In971       O983   2.250       .  S
C972        O978   1.265       .  A
C972        O980   1.260       .  A
C972       C1002   1.475       .  S
O973        C981   1.257       .  A
O974        C981   1.261       .  A
C975        O982   1.259       .  A
C975        O976   1.260       .  A
C975       C1019   1.436       .  S
C977        O979   1.263       .  A
C977        O983   1.262       .  A
C981        C997   1.436       .  S
In984       O986   2.222       .  S
In984       O987   2.247       .  S
In984       O995   2.242       .  S
In984       O989   2.246       .  S
In984       O991   2.244       .  S
In984       O992   2.265       .  S
In984       O993   2.239       .  S
In984       O996   2.262       .  S
C985        O991   1.262       .  A
C985        O993   1.257       .  A
C985       C1006   1.468       .  S
O986        C994   1.256       .  A
O987        C994   1.261       .  A
C988        O995   1.262       .  A
C988        O989   1.263       .  A
C988       C1022   1.438       .  S
C990        O992   1.256       .  A
C990        O996   1.257       .  A
C994        C998   1.424       .  S
C999       C1000   1.203       .  T
C1001      C1002   1.345       .  D
C1002      H1004   1.093       .  S
C1005      H1007   1.085       .  S
C1005      C1006   1.344       .  D
C1006      H1008   1.084       .  S
C1009      H1011   1.084       .  S
C1009      C1010   1.351       .  D
C1010      H1012   1.078       .  S
C1013      H1015   1.088       .  S
C1013      C1014   1.347       .  D
C1014      H1016   1.087       .  S
C1017      C1018   1.202       .  T
C1019      C1020   1.207       .  T
C1021      C1022   1.208       .  T
C1023      C1024   1.200       .  T
C1025      C1026   1.345       .  D
C1026      H1028   1.082       .  S
C1029      H1031   1.086       .  S
C1029      C1030   1.348       .  D
C1030      H1032   1.085       .  S
C1033      H1035   1.092       .  S
C1034      H1036   1.083       .  S
C1037      C1038   1.339       .  D
C1038      H1040   1.096       .  S
C1041      C1042   1.207       .  T
C1043      C1044   1.208   1_554  T
C1045      C1046   1.206       .  T
C1047      H1049   1.088       .  S
C1047      C1048   1.351       .  D
C1048      H1050   1.084       .  S
C1051      C1052   1.343       .  D
C1052      H1054   1.083       .  S
C1055      C1056   1.204       .  T
C1057      H1059   1.086       .  S
C1057      C1058   1.347       .  D
C1058      H1060   1.090       .  S
C1061      C1062   1.211       .  T
C1067      C1068   1.203       .  T
