geometry optimzed in LAMMPS
_audit_creation_date              2020-11-30 
_audit_creation_method            'lammps2cif' 
_symmetry_space_group_name_H-M    'P1' 
_symmetry_Int_Tables_number       1 
_symmetry_cell_setting            triclinic 
loop_ 
_symmetry_equiv_pos_as_xyz 
  x,y,z 
_cell_length_a                    35.30087149 
_cell_length_b                    35.49348508498984 
_cell_length_c                    86.76059102945305 
_cell_angle_alpha                 90.42096415072436 
_cell_angle_beta                  89.81349767774984 
_cell_angle_gamma                 120.3048608782772 
loop_ 
_atom_site_label 
_atom_site_type_symbol 
_atom_site_fract_x 
_atom_site_fract_y 
_atom_site_fract_z 
_atom_site_charge 
In1        In  0.33335948  0.06989226  0.73934662     1.36900
C2          C  0.39861610  0.13594918  0.75405640     0.79300
O3          O  0.33970025  0.11622733  0.72110782    -0.59100
O4          O  0.29551867  0.04934403  0.71660271    -0.50000
C5          C  0.37837671  0.02709780  0.73676642     0.72000
O6          O  0.34799424  0.01665816  0.74650037    -0.44900
C7          C  0.26294814  0.05449532  0.75673327     0.76700
O8          O  0.37658746  0.09864393  0.76000580    -0.56700
O9          O  0.26515196  0.02416206  0.74975095    -0.46800
O10         O  0.38707199  0.13884545  0.74060635    -0.53200
C11         C  0.31256863  0.08825518  0.71185754     0.86900
O12         O  0.38155772  0.05537246  0.72736027    -0.55000
O13         O  0.29624652  0.09144427  0.75466745    -0.58300
In14       In  0.66510685  0.90245037  0.74413504     1.36900
C15         C  0.63712915  0.82421348  0.75624108     0.79300
O16         O  0.64241346  0.86188292  0.72277610    -0.59100
O17         O  0.70201323  0.92198298  0.72125685    -0.50000
C18         C  0.60808819  0.93294195  0.74308450     0.72000
O19         O  0.59715699  0.89335589  0.74322372    -0.44900
C20         C  0.73666008  0.93934836  0.76265688     0.76700
O21         O  0.62399844  0.84936876  0.76102091    -0.56700
O22         O  0.69783774  0.92207723  0.76760265    -0.46800
O23         O  0.66397259  0.83925522  0.74524332    -0.53200
C24         C  0.67475645  0.88685601  0.71454546     0.86900
O25         O  0.64923586  0.95816230  0.74369175    -0.55000
O26         O  0.73908119  0.94245961  0.74814966    -0.58300
C27         C  0.00860449  0.00845298  0.82750507    -0.00700
In28       In  0.12305044  0.35799912  0.90850716     1.36900
C29         C  0.19680368  0.38571671  0.89268637     0.79300
O30         O  0.17014341  0.37236487  0.92798910    -0.59100
O31         O  0.10291348  0.33085634  0.93286901    -0.50000
C32         C  0.09730055  0.41871017  0.91011783     0.72000
O33         O  0.13620327  0.42698827  0.91150588    -0.44900
C34         C  0.08263428  0.28332596  0.89159412     0.76700
O35         O  0.16974250  0.39797718  0.88964199    -0.56700
O36         O  0.08130999  0.28332291  0.90614227    -0.46800
O37         O  0.18633979  0.36040294  0.90403484    -0.53200
C38         C  0.14190547  0.34943648  0.93791952     0.86900
O39         O  0.07047519  0.37847842  0.90797120    -0.55000
O40         O  0.09892637  0.32091699  0.88595651    -0.58300
In41       In  0.95742491  0.68980288  0.91606136     1.36900
C42         C  0.89481540  0.62326223  0.90050382     0.79300
O43         O  0.90796684  0.67901264  0.93418290    -0.59100
O44         O  0.97398365  0.72572191  0.93931977    -0.50000
C45         C  0.00521549  0.64933236  0.91827857     0.72000
O46         O  0.97518940  0.64372755  0.92745394    -0.44900
C47         C  0.97004636  0.75975823  0.89914316     0.76700
O48         O  0.93093685  0.65035052  0.89446619    -0.56700
O49         O  0.93346431  0.72582055  0.90128142    -0.46800
O50         O  0.89106613  0.63035950  0.91451204    -0.53200
C51         C  0.93448808  0.70567308  0.94390137     0.86900
O52         O  0.01494636  0.68007038  0.90893198    -0.55000
O53         O  0.00120391  0.75869194  0.90597705    -0.58300
In54       In  0.55438841  0.47935517  0.82687824     1.36900
C55         C  0.57471363  0.55007346  0.81045817     0.79300
O56         O  0.48273065  0.45638318  0.82600600    -0.59100
O57         O  0.51651500  0.48348269  0.84697201    -0.50000
C58         C  0.53711049  0.40451591  0.81435682     0.72000
O59         O  0.56060997  0.44066674  0.80781303    -0.44900
C60         C  0.62201374  0.48987252  0.84340703     0.76700
O61         O  0.55026023  0.51189065  0.80548136    -0.56700
O62         O  0.58887218  0.48882677  0.84938978    -0.46800
O63         O  0.59020771  0.55194596  0.82367659    -0.53200
C64         C  0.48063949  0.46701233  0.83973193     0.86900
O65         O  0.52197150  0.40678964  0.82729798    -0.55000
O66         O  0.62075874  0.48654052  0.82892565    -0.58300
C67         C  0.01352930  0.01631279  0.16261094    -0.00700
In68       In  0.24443946  0.92107086  0.25049174     1.36900
C69         C  0.19396372  0.83879971  0.24093603     0.79300
O70         O  0.25826059  0.92416833  0.27637796    -0.59100
O71         O  0.19444736  0.90562028  0.26936425    -0.50000
C72         C  0.33060436  0.94711174  0.24903490     0.72000
O73         O  0.29988177  0.90870929  0.24644572    -0.44900
C74         C  0.22112045  0.96308946  0.23008853     0.76700
O75         O  0.17905767  0.86250614  0.24543109    -0.56700
O76         O  0.22699892  0.97307956  0.24424543    -0.46800
O77         O  0.23506279  0.85675366  0.24192088    -0.53200
C78         C  0.21923727  0.91049870  0.28046155     0.86900
O79         O  0.31731502  0.97367207  0.25195377    -0.55000
O80         O  0.23323814  0.93652479  0.22626144    -0.58300
In81       In  0.74047671  0.06992454  0.24781160     1.36900
C82         C  0.74694059  0.13797878  0.23302271     0.79300
O83         O  0.78194278  0.11946443  0.26546596    -0.59100
O84         O  0.76129519  0.05370806  0.27056859    -0.50000
C85         C  0.65168247  0.02613165  0.25051235     0.72000
O86         O  0.67753227  0.05223501  0.26047602    -0.44900
C87         C  0.79395135  0.05185266  0.23073334     0.76700
O88         O  0.73244414  0.10113468  0.22666365    -0.56700
O89         O  0.76602735  0.02413212  0.23995740    -0.46800
O90         O  0.75603241  0.13900303  0.24712017    -0.53200
C91         C  0.78225933  0.09315971  0.27503107     0.86900
O92         O  0.67124514  0.01842350  0.23982399    -0.55000
O93         O  0.79365489  0.08704560  0.23050305    -0.58300
In94       In  0.97105770  0.48962333  0.16399288     1.36900
C95         C  0.03318479  0.47690278  0.15174131     0.79300
O96         O  0.00225482  0.56131626  0.16840051    -0.59100
O97         O  0.99874557  0.52148323  0.18695195    -0.50000
C98         C  0.92217792  0.50374678  0.14431008     0.72000
O99         O  0.96338599  0.52260130  0.14317732    -0.44900
C100        C  0.91234131  0.41515345  0.17688077     0.76700
O101        O  0.00168396  0.47428119  0.14405905    -0.56700
O102        O  0.91750438  0.45157741  0.18106598    -0.46800
O103        O  0.03277505  0.48611275  0.16576847    -0.53200
C104        C  0.01120810  0.55952020  0.18230046     0.86900
O105        O  0.90651563  0.47776153  0.15542345    -0.55000
O106        O  0.93784673  0.41722780  0.16627213    -0.58300
In107      In  0.76253507  0.68672633  0.07359220     1.36900
C108        C  0.76748130  0.62192502  0.08615124     0.79300
O109        O  0.81557227  0.69605276  0.05733303    -0.59100
O110        O  0.77536002  0.72099095  0.05023006    -0.50000
C111        C  0.67400293  0.63904716  0.07009379     0.72000
O112        O  0.69261549  0.67159506  0.07911326    -0.44900
C113        C  0.81101716  0.75354916  0.09353716     0.76700
O114        O  0.75272038  0.64279391  0.09338138    -0.56700
O115        O  0.78011275  0.75189376  0.08558536    -0.46800
O116        O  0.77754935  0.63313724  0.07231487    -0.53200
C117        C  0.80670766  0.71471796  0.04690020     0.86900
O118        O  0.70078241  0.63372922  0.06211161    -0.55000
O119        O  0.81624616  0.72151641  0.09117061    -0.58300
In120      In  0.25947062  0.35593612  0.07847826     1.36900
C121        C  0.23464991  0.39828754  0.09761734     0.79300
O122        O  0.22350363  0.36480940  0.05891582    -0.59100
O123        O  0.25509948  0.32914160  0.05396708    -0.50000
C124        C  0.34772192  0.41102562  0.07628156     0.72000
O125        O  0.31951254  0.42269302  0.07667832    -0.44900
C126        C  0.20906029  0.27881111  0.09309995     0.76700
O127        O  0.23304220  0.40029017  0.08315461    -0.56700
O128        O  0.19481928  0.29487766  0.08339151    -0.46800
O129        O  0.25148539  0.37649905  0.10237202    -0.53200
C130        C  0.23245104  0.34483996  0.04882921     0.86900
O131        O  0.33101761  0.37007358  0.07737194    -0.55000
O132        O  0.25049969  0.30012439  0.09429952    -0.58300
C133        C  0.99009208  0.99063296  0.49496957    -0.00700
In134      In  0.32080115  0.24773129  0.58153236     1.36900
C135        C  0.38087873  0.24379623  0.56450299     0.79300
O136        O  0.31818240  0.19769356  0.59750032    -0.59100
O137        O  0.28531344  0.23080316  0.60462132    -0.50000
C138        C  0.36925012  0.33412277  0.58702255     0.72000
O139        O  0.33625089  0.31783297  0.57817549    -0.44900
C140        C  0.24979610  0.20100585  0.56352066     0.76700
O141        O  0.35671884  0.25750704  0.55929932    -0.56700
O142        O  0.28075275  0.19352315  0.56507556    -0.46800
O143        O  0.37583240  0.23446776  0.57863981    -0.53200
C144        C  0.29621834  0.20288114  0.60786507     0.86900
O145        O  0.37470106  0.30597987  0.59376117    -0.55000
O146        O  0.25432718  0.23295163  0.57160212    -0.58300
In147      In  0.65818522  0.74136758  0.57978527     1.36900
C148        C  0.61407178  0.77029274  0.56386165     0.79300
O149        O  0.66860065  0.79284264  0.59690241    -0.59100
O150        O  0.68031546  0.74274183  0.60431385    -0.50000
C151        C  0.60178748  0.65536965  0.58375848     0.72000
O152        O  0.59139592  0.68436433  0.58449625    -0.44900
C153        C  0.73367558  0.77943068  0.56356350     0.76700
O154        O  0.63367137  0.75287333  0.55753112    -0.56700
O155        O  0.73062302  0.78972158  0.57723592    -0.46800
O156        O  0.61573192  0.77129876  0.57836008    -0.53200
C157        C  0.67931376  0.77692043  0.60784191     0.86900
O158        O  0.64206704  0.67027758  0.58097890    -0.55000
O159        O  0.69909276  0.74644104  0.55871778    -0.58300
In160      In  0.51247132  0.02108526  0.49657281     1.36900
C161        C  0.49515204  0.07780310  0.50982319     0.79300
O162        O  0.58543947  0.06109236  0.49668483    -0.59100
O163        O  0.55096859  0.06257143  0.47684322    -0.50000
C164        C  0.52560108  0.96275703  0.51052946     0.72000
O165        O  0.52288845  0.99228800  0.51780314    -0.44900
C166        C  0.43942703  0.96636963  0.48243707     0.76700
O167        O  0.50131280  0.05121020  0.51747233    -0.56700
O168        O  0.47644996  0.98181860  0.47608029    -0.46800
O169        O  0.49757615  0.07481421  0.49542906    -0.53200
C170        C  0.58730770  0.07658864  0.48351300     0.86900
O171        O  0.52198387  0.96364642  0.49610730    -0.55000
O172        O  0.43992940  0.97970470  0.49597803    -0.58300
In173      In  0.92530408  0.24903692  0.40829094     1.36900
C174        C  0.86091822  0.24398224  0.42542439     0.79300
O175        O  0.87705404  0.20685556  0.39051035    -0.59100
O176        O  0.94424482  0.23318719  0.38503318    -0.50000
C177        C  0.96758087  0.33643362  0.40511369     0.72000
O178        O  0.93725705  0.31014472  0.39636237    -0.44900
C179        C  0.94407548  0.19583242  0.42438309     0.76700
O180        O  0.89848086  0.25626703  0.43087679    -0.56700
O181        O  0.90596117  0.18763362  0.42114411    -0.46800
O182        O  0.85759473  0.23677285  0.41112686    -0.53200
C183        C  0.90472755  0.20988579  0.38068455     0.86900
O184        O  0.97940736  0.31786842  0.41476793    -0.55000
O185        O  0.97394450  0.23147147  0.41877030    -0.58300
In186      In  0.08317216  0.74281398  0.41325368     1.36900
C187        C  0.15887674  0.77513102  0.42773835     0.79300
O188        O  0.12393782  0.79902834  0.39774663    -0.59100
O189        O  0.07116937  0.74260588  0.38752703    -0.50000
C190        C  0.05476244  0.65661627  0.41071510     0.72000
O191        O  0.02846503  0.67104444  0.41051534    -0.44900
C192        C  0.04403329  0.77841465  0.42991915     0.76700
O193        O  0.12275505  0.75748645  0.43480531    -0.56700
O194        O  0.04794391  0.78149936  0.41546763    -0.46800
O195        O  0.15579832  0.77485759  0.41328160    -0.53200
C196        C  0.10367734  0.78058996  0.38552583     0.86900
O197        O  0.09410752  0.68609774  0.41217943    -0.55000
O198        O  0.05507323  0.75270209  0.43548573    -0.58300
C199        C  0.02309147  0.45608842  0.41731683     0.14400
C200        C  0.00800648  0.47381720  0.40603814     0.01400
C201        C  0.98236022  0.44671701  0.39383620     0.16400
C202        C  0.97088505  0.40267435  0.39317756     0.25800
C203        C  0.98497155  0.38452870  0.40469347    -0.40600
C204        C  0.01196339  0.41212284  0.41660658     0.32800
C205        C  0.01941738  0.52053747  0.40696704     0.01500
F206        F  0.96848744  0.46295000  0.38245059    -0.12900
F207        F  0.02639861  0.39629304  0.42794151    -0.13400
C208        C  0.06346798  0.55394088  0.40815355     0.16400
C209        C  0.07458317  0.59769903  0.40942175     0.25800
C210        C  0.04190268  0.60957648  0.40935244    -0.40500
C211        C  0.99773416  0.57615292  0.40797911     0.32800
C212        C  0.98662145  0.53214401  0.40683371     0.14500
F213        F  0.09610299  0.54427061  0.40782617    -0.12900
F214        F  0.96517646  0.58590212  0.40786288    -0.13400
F215        F  0.11771534  0.62844549  0.41069021    -0.15600
F216        F  0.94364618  0.50075435  0.40593175    -0.14200
F217        F  0.04739611  0.48100337  0.42939691    -0.14200
F218        F  0.94534399  0.37767458  0.38132276    -0.15600
C219        C  0.36099738  0.87662404  0.45593901     0.14400
C220        C  0.32112587  0.87366904  0.46002310     0.01400
C221        C  0.32014710  0.90104301  0.47158122     0.16400
C222        C  0.35874345  0.93122312  0.47896732     0.25800
C223        C  0.39880101  0.93464344  0.47473543    -0.40600
C224        C  0.39970002  0.90711829  0.46319370     0.32800
C225        C  0.28094441  0.84438947  0.45149648     0.01500
F226        F  0.28203420  0.89961213  0.47529734    -0.12900
F227        F  0.43789001  0.90923038  0.45910487    -0.13400
C228        C  0.24361548  0.81280806  0.45930879     0.16400
C229        C  0.20393648  0.78890080  0.45146986     0.25800
C230        C  0.20137100  0.79617099  0.43568686    -0.40500
C231        C  0.23947321  0.82632535  0.42775125     0.32800
C232        C  0.27890230  0.85041093  0.43563900     0.14500
F233        F  0.24548396  0.80590994  0.47459429    -0.12900
F234        F  0.23818771  0.83444692  0.41254718    -0.13400
F235        F  0.16798275  0.75935317  0.45938456    -0.15600
F236        F  0.31453514  0.88144512  0.42797006    -0.14200
F237        F  0.36235163  0.84997246  0.44491427    -0.14200
F238        F  0.35713772  0.95810087  0.48984521    -0.15600
C239        C  0.67028671  0.17462477  0.46144839     0.14400
C240        C  0.70750090  0.17014143  0.46257013     0.01400
C241        C  0.70525815  0.13548463  0.47107580     0.16400
C242        C  0.66619096  0.10542953  0.47818607     0.25800
C243        C  0.62866362  0.10902405  0.47654432    -0.40600
C244        C  0.63087921  0.14384834  0.46821883     0.32800
C245        C  0.74698348  0.19800570  0.45340523     0.01500
F246        F  0.74020268  0.12935219  0.47178973    -0.12900
F247        F  0.59500284  0.14824519  0.46677287    -0.13400
C248        C  0.78859380  0.21945201  0.46035760     0.16400
C249        C  0.82635473  0.23758373  0.45125297     0.25800
C250        C  0.82281366  0.23481402  0.43506774    -0.40500
C251        C  0.78109747  0.21703865  0.42821458     0.32800
C252        C  0.74353100  0.19838144  0.43731182     0.14500
F253        F  0.79251836  0.22062594  0.47594599    -0.12900
F254        F  0.77625010  0.21463823  0.41265646    -0.13400
F255        F  0.86604642  0.25522580  0.45830474    -0.15600
F256        F  0.70369428  0.17728292  0.43029467    -0.14200
F257        F  0.67201953  0.20839724  0.45358335    -0.14200
F258        F  0.66435458  0.07147178  0.48596119    -0.15600
C259        C  0.53397010  0.86198827  0.51741563     0.14400
C260        C  0.55030083  0.86935106  0.53255059     0.01400
C261        C  0.55716993  0.90689185  0.54054615     0.16400
C262        C  0.54806339  0.93666970  0.53351804     0.25800
C263        C  0.53291126  0.93002454  0.51821906    -0.40600
C264        C  0.52571616  0.89223465  0.51024405     0.32800
C265        C  0.56230722  0.83924247  0.53980346     0.01500
F266        F  0.57433791  0.91564306  0.55499229    -0.12900
F267        F  0.51052629  0.88434949  0.49552589    -0.13400
C268        C  0.59238610  0.83001499  0.53252859     0.16400
C269        C  0.60717966  0.80517112  0.54001530     0.25800
C270        C  0.59304092  0.79013814  0.55507040    -0.40500
C271        C  0.56167137  0.79793659  0.56211371     0.32800
C272        C  0.54610096  0.82191468  0.55446432     0.14500
F273        F  0.60949129  0.84724013  0.51854457    -0.12900
F274        F  0.54656706  0.78296016  0.57649898    -0.13400
F275        F  0.63750180  0.79829227  0.53289238    -0.15600
F276        F  0.51581074  0.82899694  0.56150674    -0.14200
F277        F  0.52597759  0.82543245  0.50957423    -0.14200
F278        F  0.55554325  0.97276099  0.54155566    -0.15600
C279        C  0.42656937  0.45722988  0.58114653     0.14400
C280        C  0.46719535  0.47169121  0.58853480     0.01400
C281        C  0.47366170  0.44100503  0.59647977     0.16400
C282        C  0.44105614  0.39676812  0.59657749     0.25800
C283        C  0.40101780  0.38190596  0.58865711    -0.40600
C284        C  0.39382007  0.41294034  0.58126557     0.32800
C285        C  0.50264366  0.51861749  0.58795313     0.01500
F286        F  0.51169636  0.45386396  0.60421119    -0.12900
F287        F  0.35534914  0.40042830  0.57390290    -0.13400
C288        C  0.49396463  0.55158751  0.59252409     0.16400
C289        C  0.52634405  0.59568039  0.59138312     0.25800
C290        C  0.56867426  0.60817021  0.58580088    -0.40500
C291        C  0.57792589  0.57513961  0.58174654     0.32800
C292        C  0.54518182  0.53088638  0.58269326     0.14500
F293        F  0.45403056  0.54108774  0.59828285    -0.12900
F294        F  0.61828952  0.58556952  0.57647203    -0.13400
F295        F  0.51603905  0.62617640  0.59583812    -0.15600
F296        F  0.55472716  0.50004152  0.57799147    -0.14200
F297        F  0.41906152  0.48580892  0.57331857    -0.14200
F298        F  0.44937365  0.36837702  0.60415798    -0.15600
C299        C  0.46734382  0.21729438  0.55251283     0.14400
C300        C  0.45156098  0.19857729  0.53791035     0.01400
C301        C  0.41736196  0.20206563  0.53113692     0.16400
C302        C  0.39679480  0.22063834  0.53938869     0.25800
C303        C  0.40962117  0.23520120  0.55462235    -0.40600
C304        C  0.44609987  0.23491881  0.56092087     0.32800
C305        C  0.46590729  0.16984242  0.53085925     0.01500
F306        F  0.40113548  0.18389412  0.51711599    -0.12900
F307        F  0.45986958  0.24980237  0.57547013    -0.13400
C308        C  0.46148629  0.13408471  0.53924790     0.16400
C309        C  0.47160338  0.10455013  0.53246967     0.25800
C310        C  0.48566889  0.10977927  0.51707258    -0.40500
C311        C  0.48996658  0.14549739  0.50862221     0.32800
C312        C  0.48049259  0.17549410  0.51551963     0.14500
F313        F  0.44548737  0.12663426  0.55385408    -0.12900
F314        F  0.50338240  0.15151052  0.49369712    -0.13400
F315        F  0.46596360  0.06989922  0.54083503    -0.15600
F316        F  0.48539809  0.20995086  0.50720793    -0.14200
F317        F  0.50172199  0.21610920  0.55897267    -0.14200
F318        F  0.36144814  0.22018149  0.53304120    -0.15600
C319        C  0.99183052  0.05781653  0.45885167     0.14400
C320        C  0.97165801  0.08040489  0.46448655     0.01400
C321        C  0.95793443  0.07436497  0.47992241     0.16400
C322        C  0.96416792  0.04618750  0.48952695     0.25800
C323        C  0.98173657  0.02053353  0.48377922    -0.40600
C324        C  0.99718949  0.02879707  0.46821607     0.32800
C325        C  0.96506262  0.11024418  0.45421682     0.01500
F326        F  0.93919966  0.09660924  0.48584483    -0.12900
F327        F  0.01997155  0.01112924  0.46193156    -0.13400
C328        C  0.92250141  0.10105146  0.45057811     0.16400
C329        C  0.91589540  0.12845478  0.44077259     0.25800
C330        C  0.95183406  0.16605643  0.43431998    -0.40500
C331        C  0.99453463  0.17509417  0.43792815     0.32800
C332        C  0.00102685  0.14741664  0.44773027     0.13600
F333        F  0.88710424  0.06492776  0.45634606    -0.12900
F334        F  0.03008703  0.21083284  0.43206565    -0.13400
F335        F  0.87399439  0.11803379  0.43770437    -0.15600
F336        F  0.04259093  0.15733727  0.45110557    -0.14200
F337        F  0.00668200  0.06394868  0.44410074    -0.14200
F338        F  0.95209727  0.04357114  0.50451075    -0.15600
C339        C  0.02549594  0.83292581  0.46500973     0.14400
C340        C  0.01765198  0.86425581  0.45819006     0.01400
C341        C  0.01594556  0.86519908  0.44196890     0.16400
C342        C  0.02234983  0.83601417  0.43283377     0.25800
C343        C  0.03128757  0.80534897  0.43963314    -0.40600
C344        C  0.03256845  0.80414922  0.45588262     0.32800
C345        C  0.01110146  0.89575993  0.46789359     0.01500
F346        F  0.00957189  0.89552850  0.43487273    -0.12900
F347        F  0.04176887  0.77580875  0.46303965    -0.13400
C348        C  0.04136831  0.92142051  0.47942079     0.16400
C349        C  0.03535517  0.95127527  0.48835566     0.25800
C350        C  0.99940100  0.95791245  0.48564533    -0.40500
C351        C  0.96807080  0.92996514  0.47450353     0.32800
C352        C  0.97409399  0.90006492  0.46575397     0.14500
F353        F  0.07734706  0.91790045  0.48204430    -0.12900
F354        F  0.93163661  0.93243266  0.47164303    -0.13400
F355        F  0.06401884  0.97161514  0.50006709    -0.15600
F356        F  0.94300442  0.87467603  0.45524601    -0.14200
F357        F  0.02610968  0.82991961  0.48058781    -0.14200
F358        F  0.02105883  0.83879507  0.41726670    -0.15600
C359        C  0.87130683  0.91789788  0.51219255     0.14400
C360        C  0.87930166  0.89623203  0.52411896     0.01400
C361        C  0.92212024  0.90453526  0.52622672     0.16400
C362        C  0.95643295  0.93435439  0.51686617     0.25800
C363        C  0.94971773  0.95830750  0.50513978    -0.40600
C364        C  0.90556363  0.94783698  0.50266740     0.32800
C365        C  0.84311281  0.86470453  0.53433261     0.01500
F366        F  0.93077793  0.88310549  0.53731345    -0.12900
F367        F  0.89420400  0.96426944  0.49065099    -0.13400
C368        C  0.80715001  0.82666050  0.52823934     0.16400
C369        C  0.77266771  0.79760826  0.53782800     0.25800
C370        C  0.77316894  0.80618447  0.55376159    -0.40500
C371        C  0.81008462  0.84359214  0.55989838     0.32800
C372        C  0.84460545  0.87236229  0.55031028     0.14500
F373        F  0.80545663  0.81757271  0.51294585    -0.12900
F374        F  0.81243860  0.85315345  0.57517302    -0.13400
F375        F  0.73829641  0.76167328  0.53139859    -0.15600
F376        F  0.87897434  0.90861941  0.55659495    -0.14200
F377        F  0.82997016  0.91007195  0.50974341    -0.14200
F378        F  0.99699625  0.94062833  0.51965483    -0.15600
C379        C  0.05957014  0.06563228  0.52963447     0.14400
C380        C  0.10182074  0.08921773  0.52330271     0.01400
C381        C  0.10715220  0.08235163  0.50765440     0.16400
C382        C  0.07165419  0.05138431  0.49878220     0.25800
C383        C  0.02933443  0.02480584  0.50529188    -0.40600
C384        C  0.02385612  0.03505392  0.52079236     0.32800
C385        C  0.14032389  0.11975578  0.53312637     0.01500
F386        F  0.14696853  0.10600166  0.50081175    -0.12900
F387        F  0.98384088  0.01732342  0.52755718    -0.13400
C388        C  0.17782009  0.11551914  0.53364640     0.16400
C389        C  0.21328577  0.14244479  0.54323968     0.25800
C390        C  0.21210854  0.17400152  0.55293835    -0.40500
C391        C  0.17479622  0.17863184  0.55235564     0.32800
C392        C  0.13952495  0.15213774  0.54246127     0.14500
F393        F  0.17975132  0.08421114  0.52517213    -0.12900
F394        F  0.17209876  0.20843224  0.56147449    -0.13400
F395        F  0.24882136  0.13719676  0.54303197    -0.15600
F396        F  0.10472451  0.15848839  0.54190937    -0.14200
F397        F  0.05262513  0.07165208  0.54462442    -0.14200
F398        F  0.07943534  0.04662369  0.48379300    -0.15600
C399        C  0.55220700  0.57805125  0.08101625     0.14400
C400        C  0.53456079  0.54199889  0.07086211     0.01400
C401        C  0.56241191  0.53986456  0.05969801     0.16400
C402        C  0.60710541  0.57229671  0.05899700     0.25800
C403        C  0.62530769  0.60773915  0.06954289    -0.40600
C404        C  0.59689015  0.61045435  0.08037927     0.32800
C405        C  0.48692042  0.50748682  0.07173349     0.01500
F406        F  0.54619013  0.50649615  0.04932601    -0.12900
F407        F  0.61246818  0.64395684  0.09067259    -0.13400
C408        C  0.45441448  0.51814573  0.06867849     0.16400
C409        C  0.40969331  0.48679055  0.07004380     0.25800
C410        C  0.39588483  0.44350629  0.07451865    -0.40500
C411        C  0.42853390  0.43257689  0.07734124     0.32800
C412        C  0.47350834  0.46421040  0.07595035     0.14500
F413        F  0.46605861  0.55915046  0.06417503    -0.12900
F414        F  0.41707973  0.39160781  0.08180895    -0.13400
F415        F  0.37983344  0.49901210  0.06681377    -0.15600
F416        F  0.50404482  0.45285260  0.07913192    -0.14200
F417        F  0.52624513  0.58130628  0.09188563    -0.14200
F418        F  0.63258465  0.56867048  0.04801016    -0.15600
C419        C  0.09769895  0.45179112  0.12255466     0.14400
C420        C  0.13146085  0.45358896  0.13166336     0.01400
C421        C  0.13296685  0.46337824  0.14745210     0.16400
C422        C  0.10121993  0.47118278  0.15401215     0.25800
C423        C  0.06737244  0.46940323  0.14486777    -0.40600
C424        C  0.06619134  0.45982673  0.12904070     0.32800
C425        C  0.16415676  0.44421659  0.12455152     0.01500
F426        F  0.16547734  0.46586995  0.15649965    -0.12900
F427        F  0.03433409  0.45786359  0.11976005    -0.13400
C428        C  0.18724170  0.46695167  0.11132001     0.16400
C429        C  0.21229729  0.45347164  0.10299659     0.25800
C430        C  0.21556330  0.41760405  0.10793851    -0.40500
C431        C  0.19549872  0.39710344  0.12187849     0.32800
C432        C  0.16958968  0.41002100  0.13004243     0.14500
F433        F  0.18426531  0.50138925  0.10615396    -0.12900
F434        F  0.19806204  0.36236806  0.12697461    -0.13400
F435        F  0.23241278  0.47477154  0.08984373    -0.15600
F436        F  0.14739789  0.38712948  0.14269402    -0.14200
F437        F  0.09457005  0.44117334  0.10735651    -0.14200
F438        F  0.10365269  0.48033771  0.16932065    -0.15600
C439        C  0.88626838  0.55581756  0.11417244     0.14400
C440        C  0.84045867  0.53081047  0.11556803     0.01400
C441        C  0.82155790  0.49541096  0.12565971     0.16400
C442        C  0.84818843  0.48581749  0.13468595     0.25800
C443        C  0.89428204  0.51177968  0.13378402    -0.40600
C444        C  0.91308075  0.54651230  0.12324738     0.32800
C445        C  0.81306829  0.54543374  0.10797671     0.01500
F446        F  0.77726588  0.47094894  0.12706707    -0.12900
F447        F  0.95727979  0.57279564  0.12222431    -0.13400
C448        C  0.80992988  0.54482946  0.09187829     0.16400
C449        C  0.79128024  0.56664330  0.08468042     0.25800
C450        C  0.77622603  0.58988709  0.09355852    -0.40500
C451        C  0.77601709  0.58711627  0.10973469     0.32800
C452        C  0.79440423  0.56504071  0.11687547     0.14500
F453        F  0.82686707  0.52494640  0.08315294    -0.12900
F454        F  0.76128229  0.60857529  0.11869895    -0.13400
F455        F  0.79021589  0.56699851  0.06903893    -0.15600
F456        F  0.79722981  0.56581491  0.13249432    -0.14200
F457        F  0.90499328  0.59079593  0.10463980    -0.14200
F458        F  0.82871278  0.45176916  0.14458154    -0.15600
C459        C  0.82765654  0.09400517  0.31505027     0.14400
C460        C  0.84402722  0.13759001  0.31966517     0.01400
C461        C  0.84119982  0.16648188  0.30944591     0.16400
C462        C  0.82195546  0.15213894  0.29491679     0.25800
C463        C  0.80471586  0.10823016  0.29025346    -0.40600
C464        C  0.80827975  0.07942999  0.30045747     0.32800
C465        C  0.86116157  0.15261362  0.33549592     0.01500
F466        F  0.85557516  0.20839608  0.31380669    -0.12900
F467        F  0.79280471  0.03713613  0.29639602    -0.13400
C468        C  0.90551006  0.18404320  0.33801892     0.16400
C469        C  0.92037463  0.20154827  0.35281954     0.25800
C470        C  0.89090334  0.18837857  0.36530520    -0.40500
C471        C  0.84670373  0.15595839  0.36275075     0.32800
C472        C  0.83212712  0.13824967  0.34802875     0.14500
F473        F  0.93420810  0.19839365  0.32606022    -0.12900
F474        F  0.81713973  0.14181188  0.37445651    -0.13400
F475        F  0.96312555  0.23265759  0.35476948    -0.15600
F476        F  0.78903500  0.10839830  0.34586298    -0.14200
F477        F  0.83022407  0.06552963  0.32474509    -0.14200
F478        F  0.81920355  0.18125562  0.28560704    -0.15600
C479        C  0.79479309  0.25688321  0.22339817     0.14400
C480        C  0.79172620  0.25495794  0.20726121     0.01400
C481        C  0.76764731  0.21428476  0.19986657     0.16400
C482        C  0.74994490  0.17580730  0.20838657     0.25800
C483        C  0.75629960  0.17760199  0.22446365    -0.40600
C484        C  0.77711356  0.21854118  0.23194796     0.32800
C485        C  0.81913315  0.29469147  0.19821213     0.01500
F486        F  0.76338043  0.21186242  0.18428393    -0.12900
F487        F  0.78316430  0.22176473  0.24745958    -0.13400
C488        C  0.85331168  0.29712294  0.18914653     0.16400
C489        C  0.88295482  0.33602529  0.18193779     0.25800
C490        C  0.87926337  0.37344003  0.18379999    -0.40500
C491        C  0.84414489  0.37061193  0.19251185     0.32800
C492        C  0.81432663  0.33146111  0.19967955     0.14500
F493        F  0.85934437  0.26233381  0.18792494    -0.12900
F494        F  0.83863163  0.40563011  0.19411184    -0.13400
F495        F  0.91635380  0.33742584  0.17366153    -0.15600
F496        F  0.78107677  0.32951833  0.20821467    -0.14200
F497        F  0.81812264  0.29586338  0.23078734    -0.14200
F498        F  0.72898554  0.13698999  0.20077309    -0.15600
C499        C  0.21429491  0.88332413  0.32312043     0.14400
C500        C  0.16901048  0.86314113  0.32611102     0.01400
C501        C  0.14108952  0.86222174  0.31443535     0.16400
C502        C  0.15779243  0.87973121  0.29988270     0.25800
C503        C  0.20290338  0.89816367  0.29658146    -0.40600
C504        C  0.23109495  0.90061759  0.30852173     0.32800
C505        C  0.15081382  0.84223318  0.34126904     0.01500
F506        F  0.09740095  0.84401905  0.31710700    -0.12900
F507        F  0.27479819  0.91853186  0.30598635    -0.13400
C508        C  0.16465296  0.86690492  0.35495476     0.16400
C509        C  0.14871365  0.84701424  0.36926081     0.25800
C510        C  0.11822716  0.80187453  0.37021692    -0.40500
C511        C  0.10396567  0.77728738  0.35646953     0.32800
C512        C  0.12011043  0.79727242  0.34215459     0.14500
F513        F  0.19348765  0.91050498  0.35445735    -0.12900
F514        F  0.07564109  0.73357539  0.35687903    -0.13400
F515        F  0.16327881  0.87213088  0.38219005    -0.15600
F516        F  0.10682439  0.77237792  0.32915595    -0.14200
F517        F  0.24210083  0.88467802  0.33417658    -0.14200
F518        F  0.12939623  0.87753721  0.28891264    -0.15600
C519        C  0.54008053  0.00873054  0.26307454     0.14400
C520        C  0.51375332  0.98850421  0.25004219     0.01400
C521        C  0.53226479  0.97753054  0.23760720     0.16400
C522        C  0.57633399  0.98771474  0.23801525     0.25800
C523        C  0.60319716  0.00931161  0.25087003    -0.40600
C524        C  0.58409521  0.01901044  0.26349742     0.32800
C525        C  0.46703282  0.97850839  0.24951461     0.01500
F526        F  0.50806115  0.95827168  0.22477096    -0.12900
F527        F  0.60818932  0.03919410  0.27626343    -0.13400
C528        C  0.45645340  0.01163505  0.25152458     0.16400
C529        C  0.41246209  0.00188017  0.25125087     0.25800
C530        C  0.37785460  0.95868740  0.24893733    -0.40500
C531        C  0.38873209  0.92568786  0.24688716     0.32800
C532        C  0.43255245  0.93549006  0.24718572     0.14500
F533        F  0.48886765  0.05370013  0.25355968    -0.12900
F534        F  0.35686784  0.88340036  0.24483537    -0.13400
F535        F  0.40387896  0.03480969  0.25325918    -0.15600
F536        F  0.44120220  0.90247282  0.24561560    -0.14200
F537        F  0.52305195  0.01841479  0.27551539    -0.14200
F538        F  0.59303471  0.97776127  0.22554919    -0.15600
C539        C  0.15746629  0.72967198  0.22158584     0.14400
C540        C  0.11288992  0.71479084  0.21897924     0.01400
C541        C  0.09448479  0.73924183  0.22445314     0.16400
C542        C  0.12048645  0.77869208  0.23218278     0.25800
C543        C  0.16566537  0.79468498  0.23437416    -0.40600
C544        C  0.18376628  0.76939810  0.22920147     0.32800
C545        C  0.08593064  0.67484778  0.20987003     0.01500
F546        F  0.05133857  0.72513556  0.22206996    -0.12900
F547        F  0.22708989  0.78355517  0.23111023    -0.13400
C548        C  0.07435921  0.63382765  0.21583938     0.16400
C549        C  0.04902425  0.59605052  0.20706917     0.25800
C550        C  0.03535242  0.59893073  0.19208864    -0.40500
C551        C  0.04659470  0.64027800  0.18627812     0.32800
C552        C  0.07163390  0.67784422  0.19511508     0.14500
F553        F  0.08748594  0.63044749  0.23020022    -0.12900
F554        F  0.03373821  0.64459036  0.17198303    -0.13400
F555        F  0.03843148  0.55684368  0.21319059    -0.15600
F556        F  0.08275967  0.71738049  0.18914675    -0.14200
F557        F  0.17584475  0.70653807  0.21619492    -0.14200
F558        F  0.10152851  0.80173347  0.23709569    -0.15600
C559        C  0.16632049  0.18445399  0.12204671     0.14400
C560        C  0.12089530  0.16930134  0.12232199     0.01400
C561        C  0.10489754  0.19005426  0.11276943     0.16400
C562        C  0.13336258  0.22479198  0.10318087     0.25800
C563        C  0.17890552  0.23996135  0.10278816    -0.40600
C564        C  0.19494635  0.21931090  0.11245117     0.32800
C565        C  0.09044106  0.13191188  0.13251545     0.01500
F566        F  0.06166020  0.17754656  0.11304707    -0.12900
F567        F  0.23839754  0.23277749  0.11265725    -0.13400
C568        C  0.09640904  0.13427558  0.14856224     0.16400
C569        C  0.07002541  0.09821634  0.15799268     0.25800
C570        C  0.03753948  0.05740656  0.15168941    -0.40500
C571        C  0.02827402  0.05754074  0.13570491     0.32800
C572        C  0.05497665  0.09368624  0.12631671     0.14500
F573        F  0.12803927  0.17179545  0.15519015    -0.12900
F574        F  0.99243583  0.02394915  0.12896941    -0.13400
F575        F  0.07822012  0.10264913  0.17335971    -0.15600
F576        F  0.04632509  0.09095385  0.11098239    -0.14200
F577        F  0.18298966  0.16501065  0.13097260    -0.14200
F578        F  0.11622522  0.24446548  0.09460983    -0.15600
C579        C  0.97129229  0.92242034  0.13181330     0.14400
C580        C  0.92653251  0.89605910  0.13541611     0.01400
C581        C  0.91126643  0.90509248  0.14907822     0.16400
C582        C  0.93895761  0.94136408  0.15830961     0.25800
C583        C  0.98297518  0.97186212  0.15375899    -0.40600
C584        C  0.99931274  0.95873845  0.14107401     0.32800
C585        C  0.89595333  0.85880350  0.12512375     0.01500
F586        F  0.86938360  0.87792125  0.15377026    -0.12900
F587        F  0.04207262  0.98285269  0.13690430    -0.13400
C588        C  0.90361079  0.82436361  0.12185049     0.16400
C589        C  0.87582235  0.79019722  0.11182776     0.25800
C590        C  0.83950367  0.78953847  0.10465609    -0.40500
C591        C  0.83122412  0.82350209  0.10828703     0.32800
C592        C  0.85892541  0.85750730  0.11844700     0.14500
F593        F  0.93776034  0.82339078  0.12859968    -0.12900
F594        F  0.79624747  0.82388808  0.10202785    -0.13400
F595        F  0.88485559  0.75780357  0.10912862    -0.15600
F596        F  0.84997482  0.88975522  0.12154948    -0.14200
F597        F  0.98771194  0.91400216  0.11891925    -0.14200
F598        F  0.92233356  0.94464444  0.17204067    -0.15600
C599        C  0.96204757  0.04124303  0.19899078     0.14400
C600        C  0.92358837  0.03745448  0.19269524     0.01400
C601        C  0.91819261  0.03293041  0.17661723     0.16400
C602        C  0.94899738  0.02996870  0.16721312     0.25800
C603        C  0.98518376  0.02823290  0.17355163    -0.40600
C604        C  0.99285184  0.03772763  0.18961097     0.32800
C605        C  0.89005849  0.04026923  0.20263989     0.01500
F606        F  0.88185088  0.02951047  0.16993039    -0.12900
F607        F  0.03082108  0.04586614  0.19638290    -0.13400
C608        C  0.87640207  0.07020274  0.19907486     0.16400
C609        C  0.84425476  0.07241988  0.20788961     0.25800
C610        C  0.82520795  0.04547683  0.22084648    -0.40500
C611        C  0.83858867  0.01528192  0.22446783     0.32800
C612        C  0.87064891  0.01270409  0.21546181     0.14500
F613        F  0.89497950  0.09830811  0.18716488    -0.12900
F614        F  0.82149546  0.98899841  0.23691111    -0.13400
F615        F  0.83160422  0.10115818  0.20360404    -0.15600
F616        F  0.88236863  0.98289507  0.21918841    -0.14200
F617        F  0.97055997  0.04963536  0.21427271    -0.14200
F618        F  0.94114206  0.02510237  0.15182848    -0.15600
C619        C  0.12278245  0.02114023  0.17604647     0.14400
C620        C  0.10918067  0.99549351  0.18937341     0.01400
C621        C  0.06425522  0.97306848  0.19293830     0.16400
C622        C  0.03398190  0.97797557  0.18389587     0.25800
C623        C  0.04779225  0.00796219  0.17146223    -0.40600
C624        C  0.09281169  0.02672840  0.16707506     0.32800
C625        C  0.14139815  0.99108461  0.19936547     0.01500
F626        F  0.04946009  0.94590906  0.20523135    -0.12900
F627        F  0.10837392  0.04888179  0.15370720    -0.13400
C628        C  0.14837850  0.00585879  0.21476943     0.16400
C629        C  0.17626965  0.99918443  0.22452080     0.25800
C630        C  0.19791857  0.97735141  0.21913343    -0.40500
C631        C  0.19210011  0.96405304  0.20349634     0.32800
C632        C  0.16433103  0.97092729  0.19376617     0.14500
F633        F  0.12764157  0.02641359  0.22045288    -0.12900
F634        F  0.21205050  0.94285816  0.19767824    -0.13400
F635        F  0.18053138  0.01254476  0.23943562    -0.15600
F636        F  0.15833404  0.95606422  0.17900187    -0.14200
F637        F  0.16553197  0.04118990  0.17167334    -0.14200
F638        F  0.99107181  0.95469472  0.18791564    -0.15600
C639        C  0.86365710  0.68379857  0.97959692     0.14400
C640        C  0.88684927  0.72306212  0.98792867     0.01400
C641        C  0.92704108  0.75632019  0.98202532     0.16400
C642        C  0.94319249  0.75073610  0.96785027     0.25800
C643        C  0.91936863  0.71175294  0.95931387    -0.40600
C644        C  0.87955590  0.67823343  0.96546448     0.32800
C645        C  0.86929479  0.72820566  0.00296437     0.01500
F646        F  0.95021959  0.79454559  0.98986168    -0.12900
F647        F  0.85619169  0.63947934  0.95793189    -0.13400
C648        C  0.89183105  0.73203385  0.01672731     0.16400
C649        C  0.87253035  0.73061795  0.03101615     0.25800
C650        C  0.83025077  0.72546669  0.03187630    -0.40500
C651        C  0.80902074  0.72476816  0.01808827     0.32800
C652        C  0.82821926  0.72572775  0.00376475     0.14500
F653        F  0.93148805  0.73452472  0.01636348    -0.12900
F654        F  0.76850532  0.72030317  0.01843132    -0.13400
F655        F  0.89474433  0.73290894  0.04407101    -0.15600
F656        F  0.80606086  0.72281250  0.99063344    -0.14200
F657        F  0.82587940  0.65030132  0.98534675    -0.14200
F658        F  0.98142005  0.78391319  0.96228455    -0.15600
C659        C  0.78437292  0.52568076  0.89149217     0.14400
C660        C  0.78009181  0.53343657  0.87591653     0.01400
C661        C  0.81688666  0.56541489  0.86790749     0.16400
C662        C  0.85603378  0.59213936  0.87570954     0.25800
C663        C  0.85853105  0.58801415  0.89170873    -0.40600
C664        C  0.82328721  0.55306079  0.89939621     0.32800
C665        C  0.73627776  0.51449704  0.86877033     0.01500
F666        F  0.81369491  0.57386883  0.85287890    -0.12900
F667        F  0.82566612  0.54674949  0.91470316    -0.13400
C668        C  0.70488241  0.52277143  0.87550175     0.16400
C669        C  0.66679865  0.51306058  0.86749766     0.25800
C670        C  0.65966915  0.49536463  0.85252780    -0.40500
C671        C  0.68991372  0.48479296  0.84614102     0.32800
C672        C  0.72785704  0.49414316  0.85424608     0.14500
F673        F  0.71256603  0.54329276  0.88938615    -0.12900
F674        F  0.68326304  0.46618299  0.83193409    -0.13400
F675        F  0.63834325  0.52359108  0.87404411    -0.15600
F676        F  0.75719911  0.48481765  0.84770117    -0.14200
F677        F  0.74987831  0.49348141  0.89925887    -0.14200
F678        F  0.88992665  0.62475212  0.86786169    -0.15600
C679        C  0.17763949  0.35665272  0.01280777     0.14400
C680        C  0.19195588  0.33904188  0.00116334     0.01400
C681        C  0.21922488  0.32234037  0.00529277     0.16400
C682        C  0.23184011  0.32328059  0.02075357     0.25800
C683        C  0.21778438  0.34136125  0.03242244    -0.40600
C684        C  0.19025526  0.35778393  0.02818110     0.32800
C685        C  0.17903369  0.33928985  0.98476155     0.01500
F686        F  0.23342162  0.30480078  0.99435004    -0.12900
F687        F  0.17557745  0.37545335  0.03890196    -0.13400
C688        C  0.21108186  0.36199765  0.97345639     0.16400
C689        C  0.19896503  0.36496133  0.95831530     0.25800
C690        C  0.15430838  0.34512398  0.95402410    -0.40500
C691        C  0.12224430  0.32161305  0.96530038     0.32800
C692        C  0.13448495  0.31887698  0.98047873     0.14500
F693        F  0.25433558  0.38268462  0.97719192    -0.12900
F694        F  0.07892759  0.30157875  0.96173032    -0.13400
F695        F  0.23125224  0.38776180  0.94789887    -0.15600
F696        F  0.10268068  0.29613825  0.99104921    -0.14200
F697        F  0.15226565  0.37405712  0.00921722    -0.14200
F698        F  0.25818293  0.30692001  0.02423055    -0.15600
C699        C  0.10656941  0.53077252  0.91478490     0.14400
C700        C  0.06291948  0.52097164  0.91293948     0.01400
C701        C  0.03061082  0.47719408  0.90987656     0.16400
C702        C  0.04149539  0.44408294  0.90892578     0.25800
C703        C  0.08513866  0.45374800  0.91095550    -0.40600
C704        C  0.11753932  0.49778072  0.91380460     0.32800
C705        C  0.05069959  0.55579144  0.91480567     0.01500
F706        F  0.98826741  0.46644847  0.90763874    -0.12900
F707        F  0.16013342  0.50916260  0.91585473    -0.13400
C708        C  0.07004006  0.59388833  0.90573331     0.16400
C709        C  0.05682158  0.62527513  0.90721603     0.25800
C710        C  0.02407275  0.61956121  0.91789244    -0.40500
C711        C  0.00595905  0.58206908  0.92729335     0.32800
C712        C  0.01903980  0.55082221  0.92575573     0.14500
F713        F  0.10070140  0.60004812  0.89500821    -0.12900
F714        F  0.97437592  0.57468441  0.93778939    -0.13400
F715        F  0.07541691  0.66072947  0.89792266    -0.15600
F716        F  0.00058573  0.51540871  0.93507475    -0.14200
F717        F  0.13863001  0.57227485  0.91802314    -0.14200
F718        F  0.00912206  0.40250352  0.90602620    -0.15600
C719        C  0.29953329  0.39029165  0.87756852     0.14400
C720        C  0.31676517  0.42684279  0.86796112     0.01400
C721        C  0.29349601  0.44885071  0.86584398     0.16400
C722        C  0.25393171  0.43515652  0.87366861     0.25800
C723        C  0.23735247  0.39935680  0.88375874    -0.40600
C724        C  0.26021258  0.37660378  0.88539675     0.32800
C725        C  0.35942577  0.44181297  0.86041449     0.01500
F726        F  0.30968037  0.48420249  0.85652324    -0.12900
F727        F  0.24439642  0.34076586  0.89446783    -0.13400
C728        C  0.36172653  0.43662702  0.84447555     0.16400
C729        C  0.40137942  0.44570494  0.83766618     0.25800
C730        C  0.43940673  0.46021757  0.84674751    -0.40500
C731        C  0.43723466  0.46715822  0.86265032     0.32800
C732        C  0.39751870  0.45791042  0.86940551     0.14500
F733        F  0.32514921  0.42107091  0.83561398    -0.12900
F734        F  0.47316011  0.48171197  0.87179147    -0.13400
F735        F  0.40224581  0.43954572  0.82223485    -0.15600
F736        F  0.39592722  0.46383764  0.88482423    -0.14200
F737        F  0.32086916  0.36769777  0.87929567    -0.14200
F738        F  0.23250402  0.45753681  0.87164802    -0.15600
C739        C  0.02061260  0.86523421  0.87529380     0.14400
C740        C  0.98319174  0.86422041  0.86908977     0.01400
C741        C  0.94169725  0.82930205  0.87318621     0.16400
C742        C  0.93762242  0.79611943  0.88304456     0.25800
C743        C  0.97502015  0.79670424  0.88918895    -0.40600
C744        C  0.01661738  0.83211749  0.88525462     0.32800
C745        C  0.98737754  0.89885264  0.85811166     0.01500
F746        F  0.90483900  0.82653938  0.86723995    -0.12900
F747        F  0.05361927  0.83456048  0.89088281    -0.13400
C748        C  0.01023930  0.90611113  0.84416923     0.16400
C749        C  0.01490733  0.93869907  0.83390832     0.25800
C750        C  0.99922128  0.96769586  0.83765950    -0.40500
C751        C  0.97201039  0.95657583  0.85093972     0.32800
C752        C  0.96712474  0.92360477  0.86111430     0.14500
F753        F  0.02707795  0.88045267  0.84016487    -0.12900
F754        F  0.95191424  0.97937655  0.85467655    -0.13400
F755        F  0.03309244  0.93972522  0.82001113    -0.15600
F756        F  0.94351302  0.91682690  0.87422681    -0.14200
F757        F  0.06126587  0.89863579  0.87178457    -0.14200
F758        F  0.89666913  0.76312923  0.88646218    -0.15600
C759        C  0.03550723  0.12614154  0.83883425     0.14400
C760        C  0.04602833  0.12958780  0.85459747     0.01400
C761        C  0.04972442  0.09557527  0.86124004     0.16400
C762        C  0.03983762  0.05767629  0.85277920     0.25800
C763        C  0.02486561  0.05183526  0.83723013    -0.40600
C764        C  0.02685234  0.08891647  0.83019854     0.32800
C765        C  0.05418600  0.16890934  0.86398928     0.01500
F766        F  0.06424400  0.09950202  0.87596265    -0.12900
F767        F  0.01714591  0.08806635  0.81503724    -0.13400
C768        C  0.03228447  0.16431343  0.87811978     0.16400
C769        C  0.04060499  0.20115978  0.88701897     0.25800
C770        C  0.07036543  0.24365729  0.88187188    -0.40500
C771        C  0.09192143  0.24815899  0.86768720     0.32800
C772        C  0.08423800  0.21143406  0.85896674     0.14500
F773        F  0.00238117  0.12400749  0.88327199    -0.12900
F774        F  0.12241682  0.28829048  0.86256330    -0.13400
F775        F  0.01930942  0.19519068  0.90063265    -0.15600
F776        F  0.10771074  0.21755601  0.84585738    -0.14200
F777        F  0.03189706  0.15824995  0.83180818    -0.14200
F778        F  0.04730693  0.02815813  0.85988052    -0.15600
C779        C  0.65028673  0.82275885  0.67711045     0.14400
C780        C  0.69034047  0.84529358  0.66922936     0.01400
C781        C  0.72534562  0.88265647  0.67608123     0.16400
C782        C  0.72039215  0.89694602  0.69070402     0.25800
C783        C  0.68014059  0.87423179  0.69864413    -0.40600
C784        C  0.64516302  0.83698352  0.69160150     0.32800
C785        C  0.69429978  0.83019347  0.65362683     0.01500
F786        F  0.76456148  0.90472513  0.66873650    -0.12900
F787        F  0.60565526  0.81405332  0.69870598    -0.13400
C788        C  0.70002386  0.85612670  0.64071225     0.16400
C789        C  0.69705417  0.83942545  0.62581678     0.25800
C790        C  0.68831959  0.79636421  0.62354894    -0.40500
C791        C  0.68488773  0.77124452  0.63651798     0.32800
C792        C  0.68774660  0.78800087  0.65141661     0.14500
F793        F  0.70603888  0.89682766  0.64251628    -0.12900
F794        F  0.67635992  0.72961842  0.63482942    -0.13400
F795        F  0.70164085  0.86513429  0.61361182    -0.15600
F796        F  0.68272487  0.76250267  0.66373269    -0.14200
F797        F  0.61565790  0.78713653  0.67061275    -0.14200
F798        F  0.75527842  0.93224621  0.69721548    -0.15600
C799        C  0.90969755  0.95214655  0.79871733     0.14400
C800        C  0.88513682  0.97240973  0.80203653     0.01400
C801        C  0.89707179  0.99985518  0.81501632     0.16400
C802        C  0.93455795  0.00970711  0.82370656     0.25800
C803        C  0.96319772  0.99399956  0.81928996    -0.40600
C804        C  0.94713304  0.96163953  0.80745949     0.32800
C805        C  0.84720096  0.96501280  0.79204436     0.01500
F806        F  0.87263509  0.01794317  0.81924304    -0.12900
F807        F  0.96909690  0.94070687  0.80366168    -0.13400
C808        C  0.80471871  0.94799850  0.79819120     0.16400
C809        C  0.76940420  0.94146227  0.78881751     0.25800
C810        C  0.77541310  0.95151974  0.77294836    -0.40500
C811        C  0.81816986  0.96918562  0.76686581     0.32800
C812        C  0.85349485  0.97586091  0.77629037     0.14500
F813        F  0.79701227  0.93634018  0.81324436    -0.12900
F814        F  0.82590149  0.97953892  0.75170711    -0.13400
F815        F  0.72896607  0.92404211  0.79527421    -0.15600
F816        F  0.89416559  0.99338130  0.77001729    -0.14200
F817        F  0.89733048  0.92284799  0.78695219    -0.14200
F818        F  0.94114683  0.03352535  0.83674858    -0.15600
C819        C  0.56666750  0.62201268  0.78013883     0.14400
C820        C  0.59570333  0.66366532  0.78602494     0.01400
C821        C  0.61883117  0.66817107  0.79965756     0.16400
C822        C  0.61276626  0.63126490  0.80746348     0.25800
C823        C  0.58319523  0.58919357  0.80173869    -0.40600
C824        C  0.56032784  0.58496565  0.78793231     0.32800
C825        C  0.60327264  0.70270856  0.77767576     0.01500
F826        F  0.64755407  0.70844755  0.80533141    -0.12900
F827        F  0.53132808  0.54506475  0.78204908    -0.13400
C828        C  0.58249193  0.72566870  0.78237146     0.16400
C829        C  0.59238638  0.76464803  0.77511734     0.25800
C830        C  0.62349154  0.78121793  0.76311248    -0.40500
C831        C  0.64295456  0.75697114  0.75810396     0.32800
C832        C  0.63291196  0.71808791  0.76536980     0.14500
F833        F  0.55303616  0.71052076  0.79410537    -0.12900
F834        F  0.67256867  0.77126355  0.74641606    -0.13400
F835        F  0.57193139  0.78630044  0.77997537    -0.15600
F836        F  0.65304490  0.69595286  0.76068765    -0.14200
F837        F  0.54423164  0.61732712  0.76690356    -0.14200
F838        F  0.63585646  0.63682733  0.82060312    -0.15600
C839        C  0.26922898  0.08340721  0.67117483     0.14400
C840        C  0.28781373  0.12810943  0.66772047     0.01400
C841        C  0.31322756  0.15904148  0.67909635     0.16400
C842        C  0.31982722  0.14582556  0.69348120     0.25800
C843        C  0.30257593  0.10122457  0.69678678    -0.40600
C844        C  0.27700937  0.07013839  0.68546516     0.32800
C845        C  0.28320643  0.14294434  0.65209563     0.01500
F846        F  0.33333107  0.20244719  0.67613190    -0.12900
F847        F  0.26011977  0.02691033  0.68807694    -0.13400
C848        C  0.27252100  0.17604366  0.65040038     0.16400
C849        C  0.27478309  0.19447803  0.63592631     0.25800
C850        C  0.28659585  0.17938442  0.62276211    -0.40500
C851        C  0.29359548  0.14385917  0.62427358     0.32800
C852        C  0.29284793  0.12650591  0.63876454     0.14500
F853        F  0.26094303  0.19141192  0.66284354    -0.12900
F854        F  0.30267818  0.12664660  0.61173797    -0.13400
F855        F  0.26748997  0.22846304  0.63496469    -0.15600
F856        F  0.30429256  0.09539082  0.63978568    -0.14200
F857        F  0.24343111  0.05241556  0.66071465    -0.14200
F858        F  0.34374222  0.17715914  0.70412480    -0.15600
C859        C  0.08053954  0.03238996  0.78990207     0.14400
C860        C  0.11808183  0.03350178  0.79578005     0.01400
C861        C  0.12220084  0.03224652  0.81178062     0.16400
C862        C  0.08844840  0.02727185  0.82167963     0.25800
C863        C  0.04781643  0.02079485  0.81591340    -0.40600
C864        C  0.04638363  0.02721120  0.79975644     0.32800
C865        C  0.15427230  0.03853892  0.78540028     0.01500
F866        F  0.15882252  0.03483651  0.81787974    -0.12900
F867        F  0.01342824  0.03078985  0.79330854    -0.13400
C868        C  0.19228060  0.07949975  0.78370966     0.16400
C869        C  0.22714957  0.08450654  0.77440898     0.25800
C870        C  0.22518536  0.04842328  0.76658716    -0.40500
C871        C  0.18704081  0.00721059  0.76840653     0.32800
C872        C  0.15195872  0.00240503  0.77766886     0.14500
F873        F  0.19568536  0.11485767  0.79115912    -0.12900
F874        F  0.18369466  0.97145144  0.76130871    -0.13400
F875        F  0.26308566  0.12494288  0.77321652    -0.15600
F876        F  0.11594181  0.96223122  0.77930902    -0.14200
F877        F  0.07730704  0.03725453  0.77454060    -0.14200
F878        F  0.09465396  0.02571004  0.83701187    -0.15600
C879        C  0.49794018  0.92897478  0.73998081     0.14400
C880        C  0.51013781  0.97330932  0.74050460     0.01400
C881        C  0.55518694  0.00464716  0.74187086     0.16400
C882        C  0.58706536  0.99189709  0.74268540     0.25800
C883        C  0.57477496  0.94742094  0.74221517    -0.40600
C884        C  0.52961049  0.91620665  0.74082755     0.32800
C885        C  0.47584199  0.98648575  0.73940047     0.01500
F886        F  0.56839032  0.04775922  0.74270409    -0.12900
F887        F  0.51572587  0.87292249  0.74011598    -0.13400
C888        C  0.43943870  0.96890927  0.74944531     0.16400
C889        C  0.40697203  0.98066570  0.74823877     0.25800
C890        C  0.41004589  0.01059664  0.73700554    -0.40500
C891        C  0.44645733  0.02803761  0.72692134     0.32800
C892        C  0.47870833  0.01604325  0.72808060     0.14500
F893        F  0.43588686  0.94118628  0.76079589    -0.12900
F894        F  0.45158112  0.05758761  0.71605506    -0.13400
F895        F  0.37299629  0.96337155  0.75834760    -0.15600
F896        F  0.51267906  0.03314191  0.71796431    -0.14200
F897        F  0.45512152  0.89773446  0.73826469    -0.14200
F898        F  0.62996183  0.02321056  0.74398916    -0.15600
C899        C  0.47326998  0.20566699  0.78621921     0.14400
C900        C  0.48605290  0.24748451  0.78070906     0.01400
C901        C  0.47554478  0.25251815  0.76557418     0.16400
C902        C  0.44964898  0.21605225  0.75644410     0.25800
C903        C  0.43324628  0.17386888  0.76243565    -0.40600
C904        C  0.44701855  0.16897174  0.77712002     0.32800
C905        C  0.50390719  0.28520785  0.79123951     0.01500
F906        F  0.48709485  0.29266458  0.76008727    -0.12900
F907        F  0.43353131  0.12875726  0.78296123    -0.13400
C908        C  0.54332003  0.32339405  0.78771755     0.16400
C909        C  0.55499439  0.36211839  0.79561664     0.25800
C910        C  0.52753674  0.36292981  0.80725002    -0.40500
C911        C  0.48954101  0.32396372  0.81143578     0.32800
C912        C  0.47768041  0.28542777  0.80340481     0.14500
F913        F  0.56934677  0.32351569  0.77613517    -0.12900
F914        F  0.46219285  0.32370754  0.82253186    -0.13400
F915        F  0.59255217  0.39899144  0.79160936    -0.15600
F916        F  0.43875527  0.24912803  0.80668749    -0.14200
F917        F  0.48432247  0.20039701  0.80068858    -0.14200
F918        F  0.43811741  0.22223008  0.74217332    -0.15600
loop_ 
_geom_bond_atom_site_label_1 
_geom_bond_atom_site_label_2 
_geom_bond_distance 
_geom_bond_site_symmetry_2 
_ccdc_geom_bond_type 
In1           O3   2.219       .  S
In1           O4   2.285       .  S
In1          O12   2.260       .  S
In1           O6   2.286       .  S
In1           O8   2.237       .  S
In1           O9   2.304       .  S
In1          O10   2.216       .  S
In1          O13   2.248       .  S
C2            O8   1.262       .  A
C2           O10   1.259       .  A
C2          C903   1.472       .  S
O3           C11   1.257       .  A
O4           C11   1.268       .  A
C5           O12   1.258       .  A
C5            O6   1.264       .  A
C5          C890   1.501       .  S
C7            O9   1.268       .  A
C7           O13   1.257       .  A
C7          C870   1.503       .  S
C11         C843   1.491       .  S
In14         O16   2.226       .  S
In14         O17   2.282       .  S
In14         O25   2.312       .  S
In14         O19   2.255       .  S
In14         O21   2.252       .  S
In14         O22   2.269       .  S
In14         O23   2.226       .  S
In14         O26   2.283       .  S
C15          O21   1.263       .  A
C15          O23   1.259       .  A
C15         C830   1.479       .  S
O16          C24   1.258       .  A
O17          C24   1.266       .  A
C18          O25   1.266       .  A
C18          O19   1.255       .  A
C18         C883   1.505       .  S
C20          O22   1.261       .  A
C20          O26   1.263       .  A
C20         C810   1.504       .  S
C24         C783   1.488       .  S
C27         C750   1.585   1_445  S
C27         C763   1.583       .  S
C27         C803   1.585   1_445  S
C27         C863   1.583       .  S
In28         O30   2.243       .  S
In28         O31   2.287       .  S
In28         O39   2.310       .  S
In28         O33   2.263       .  S
In28         O35   2.251       .  S
In28         O36   2.300       .  S
In28         O37   2.225       .  S
In28         O40   2.264       .  S
C29          O35   1.263       .  A
C29          O37   1.260       .  A
C29         C723   1.477       .  S
O30          C38   1.259       .  A
O31          C38   1.267       .  A
C32          O39   1.266       .  A
C32          O33   1.257       .  A
C32         C703   1.508       .  S
C34          O36   1.263       .  A
C34          O40   1.258       .  A
C34         C770   1.500       .  S
C38         C690   1.497       .  S
In41         O43   2.232       .  S
In41         O44   2.293       .  S
In41         O52   2.307   1_655  S
In41         O46   2.260       .  S
In41         O48   2.235       .  S
In41         O49   2.262       .  S
In41         O50   2.229       .  S
In41         O53   2.311   1_655  S
C42          O48   1.261       .  A
C42          O50   1.259       .  A
C42         C663   1.471       .  S
O43          C51   1.258       .  A
O44          C51   1.268       .  A
C45          O52   1.264       .  A
C45          O46   1.257   1_455  A
C45         C710   1.507       .  S
C47          O49   1.259       .  A
C47          O53   1.269   1_655  A
C47         C743   1.510       .  S
C51         C643   1.492       .  S
In54         O56   2.233       .  S
In54         O57   2.242       .  S
In54         O65   2.230       .  S
In54         O59   2.222       .  S
In54         O61   2.237       .  S
In54         O62   2.237       .  S
In54         O63   2.244       .  S
In54         O66   2.233       .  S
C55          O61   1.258       .  A
C55          O63   1.259       .  A
C55         C823   1.478       .  S
O56          C64   1.260       .  A
O57          C64   1.262       .  A
C58          O65   1.261       .  A
C58          O59   1.261       .  A
C58         C910   1.469       .  S
C60          O62   1.262       .  A
C60          O66   1.260       .  A
C60         C670   1.475       .  S
C64         C730   1.480       .  S
C67         C570   1.585       .  S
C67         C583   1.585   1_445  S
C67         C603   1.580   1_455  S
C67         C623   1.585       .  S
In68         O70   2.290       .  S
In68         O71   2.261       .  S
In68         O79   2.296       .  S
In68         O73   2.237       .  S
In68         O75   2.234       .  S
In68         O76   2.290       .  S
In68         O77   2.256       .  S
In68         O80   2.262       .  S
C69          O75   1.256       .  A
C69          O77   1.259       .  A
C69         C543   1.478       .  S
O70          C78   1.258       .  A
O71          C78   1.254       .  A
C72          O79   1.271       .  A
C72          O73   1.261       .  A
C72         C530   1.503       .  S
C74          O76   1.264       .  A
C74          O80   1.258       .  A
C74         C630   1.504       .  S
C78         C503   1.493       .  S
In81         O83   2.227       .  S
In81         O84   2.285       .  S
In81         O92   2.297       .  S
In81         O86   2.264       .  S
In81         O88   2.241       .  S
In81         O89   2.319       .  S
In81         O90   2.227       .  S
In81         O93   2.234       .  S
C82          O88   1.262       .  A
C82          O90   1.261       .  A
C82         C483   1.478       .  S
O83          C91   1.258       .  A
O84          C91   1.267       .  A
C85          O92   1.263       .  A
C85          O86   1.256       .  A
C85         C523   1.502       .  S
C87          O89   1.268       .  A
C87          O93   1.255       .  A
C87         C610   1.499       .  S
C91         C463   1.492       .  S
In94         O96   2.235   1_655  S
In94         O97   2.251       .  S
In94        O105   2.227       .  S
In94         O99   2.249       .  S
In94        O101   2.242   1_655  S
In94        O102   2.242       .  S
In94        O103   2.250   1_655  S
In94        O106   2.232       .  S
C95         O101   1.261       .  A
C95         O103   1.260       .  A
C95         C423   1.483       .  S
O96         C104   1.258       .  A
O97         C104   1.260   1_655  A
C98         O105   1.257       .  A
C98          O99   1.261       .  A
C98         C443   1.476       .  S
C100        O102   1.262       .  A
C100        O106   1.262       .  A
C100        C490   1.476       .  S
C104        C550   1.479       .  S
In107       O109   2.229       .  S
In107       O110   2.295       .  S
In107       O118   2.265       .  S
In107       O112   2.295       .  S
In107       O114   2.234       .  S
In107       O115   2.310       .  S
In107       O116   2.219       .  S
In107       O119   2.253       .  S
C108        O114   1.263       .  A
C108        O116   1.260       .  A
C108        C450   1.472       .  S
O109        C117   1.255       .  A
O110        C117   1.266       .  A
C111        O118   1.258       .  A
C111        O112   1.266       .  A
C111        C403   1.505       .  S
C113        O115   1.269       .  A
C113        O119   1.256       .  A
C113        C590   1.505       .  S
C117        C650   1.488       .  S
In120       O122   2.240       .  S
In120       O123   2.297       .  S
In120       O131   2.315       .  S
In120       O125   2.251       .  S
In120       O127   2.232       .  S
In120       O128   2.259       .  S
In120       O129   2.256       .  S
In120       O132   2.305       .  S
C121        O127   1.260       .  A
C121        O129   1.262       .  A
C121        C430   1.476       .  S
O122        C130   1.258       .  A
O123        C130   1.266       .  A
C124        O131   1.267       .  A
C124        O125   1.257       .  A
C124        C410   1.505       .  S
C126        O128   1.260       .  A
C126        O132   1.267       .  A
C126        C563   1.507       .  S
C130        C683   1.499       .  S
C133        C323   1.578   1_565  S
C133        C350   1.575       .  S
C133        C363   1.576       .  S
C133        C383   1.578   1_665  S
In134       O136   2.225       .  S
In134       O137   2.277       .  S
In134       O145   2.243       .  S
In134       O139   2.283       .  S
In134       O141   2.236       .  S
In134       O142   2.229       .  S
In134       O143   2.231       .  S
In134       O146   2.300       .  S
C135        O141   1.262       .  A
C135        O143   1.261       .  A
C135        C303   1.470       .  S
O136        C144   1.257       .  A
O137        C144   1.265       .  A
C138        O145   1.257       .  A
C138        O139   1.265       .  A
C138        C283   1.494       .  S
C140        O142   1.256       .  A
C140        O146   1.268       .  A
C140        C390   1.497       .  S
C144        C850   1.486       .  S
In147       O149   2.228       .  S
In147       O150   2.261       .  S
In147       O158   2.293       .  S
In147       O152   2.239       .  S
In147       O154   2.241       .  S
In147       O155   2.260       .  S
In147       O156   2.236       .  S
In147       O159   2.277       .  S
C148        O154   1.260       .  A
C148        O156   1.259       .  A
C148        C270   1.473       .  S
O149        C157   1.261       .  A
O150        C157   1.267       .  A
C151        O158   1.265       .  A
C151        O152   1.256       .  A
C151        C290   1.494       .  S
C153        O155   1.259       .  A
C153        O159   1.262       .  A
C153        C370   1.496       .  S
C157        C790   1.484       .  S
In160       O162   2.227       .  S
In160       O163   2.224       .  S
In160       O171   2.227   1_545  S
In160       O165   2.233   1_545  S
In160       O167   2.231       .  S
In160       O168   2.216   1_545  S
In160       O169   2.222       .  S
In160       O172   2.218   1_545  S
C161        O167   1.263       .  A
C161        O169   1.259       .  A
C161        C310   1.472       .  S
O162        C170   1.259       .  A
O163        C170   1.259       .  A
C164        O171   1.260       .  A
C164        O165   1.264       .  A
C164        C263   1.475       .  S
C166        O168   1.261       .  A
C166        O172   1.260       .  A
C166        C223   1.462       .  S
C170        C243   1.460       .  S
In173       O175   2.221       .  S
In173       O176   2.278       .  S
In173       O184   2.283       .  S
In173       O178   2.249       .  S
In173       O180   2.242       .  S
In173       O181   2.234       .  S
In173       O182   2.216       .  S
In173       O185   2.294       .  S
C174        O180   1.261       .  A
C174        O182   1.259       .  A
C174        C250   1.473       .  S
O175        C183   1.258       .  A
O176        C183   1.268       .  A
C177        O184   1.264       .  A
C177        O178   1.257       .  A
C177        C203   1.495       .  S
C179        O181   1.257       .  A
C179        O185   1.268       .  A
C179        C330   1.497       .  S
C183        C470   1.488       .  S
In186       O188   2.234       .  S
In186       O189   2.273       .  S
In186       O197   2.234       .  S
In186       O191   2.303       .  S
In186       O193   2.233       .  S
In186       O194   2.277       .  S
In186       O195   2.219       .  S
In186       O198   2.271       .  S
C187        O193   1.260       .  A
C187        O195   1.259       .  A
C187        C230   1.467       .  S
O188        C196   1.260       .  A
O189        C196   1.267       .  A
C190        O197   1.254       .  A
C190        O191   1.267       .  A
C190        C210   1.497       .  S
C192        O194   1.260       .  A
C192        O198   1.259       .  A
C192        C343   1.499       .  S
C196        C510   1.489       .  S
C199        C200   1.410       .  A
C199        C204   1.405       .  A
C199        F217   1.358       .  S
C200        C205   1.498       .  S
C200        C201   1.406   1_455  A
C201        C202   1.404       .  A
C201        F206   1.358       .  S
C202        C203   1.413       .  A
C202        F218   1.358       .  S
C203        C204   1.409   1_655  A
C204        F207   1.357       .  S
C205        C208   1.405       .  A
C205        C212   1.411   1_455  A
C208        C209   1.400       .  A
C208        F213   1.358       .  S
C209        C210   1.414       .  A
C209        F215   1.358       .  S
C210        C211   1.409   1_455  A
C211        C212   1.408       .  A
C211        F214   1.357       .  S
C212        F216   1.357       .  S
C219        C220   1.402       .  A
C219        C224   1.392       .  A
C219        F237   1.358       .  S
C220        C225   1.465       .  S
C220        C221   1.404       .  A
C221        C222   1.392       .  A
C221        F226   1.358       .  S
C222        C223   1.405       .  A
C222        F238   1.358       .  S
C223        C224   1.405       .  A
C224        F227   1.358       .  S
C225        C228   1.403       .  A
C225        C232   1.402       .  A
C228        C229   1.394       .  A
C228        F233   1.358       .  S
C229        C230   1.407       .  A
C229        F235   1.358       .  S
C230        C231   1.407       .  A
C231        C232   1.390       .  A
C231        F234   1.358       .  S
C232        F236   1.358       .  S
C239        C240   1.404       .  A
C239        C244   1.394       .  A
C239        F257   1.358       .  S
C240        C245   1.472       .  S
C240        C241   1.407       .  A
C241        C242   1.393       .  A
C241        F246   1.358       .  S
C242        C243   1.401       .  A
C242        F258   1.358       .  S
C243        C244   1.404       .  A
C244        F247   1.358       .  S
C245        C248   1.404       .  A
C245        C252   1.403       .  A
C248        C249   1.396       .  A
C248        F253   1.358       .  S
C249        C250   1.409       .  A
C249        F255   1.358       .  S
C250        C251   1.408       .  A
C251        C252   1.391       .  A
C251        F254   1.358       .  S
C252        F256   1.358       .  S
C259        C260   1.405       .  A
C259        C264   1.397       .  A
C259        F277   1.358       .  S
C260        C265   1.479       .  S
C260        C261   1.406       .  A
C261        C262   1.395       .  A
C261        F266   1.358       .  S
C262        C263   1.406       .  A
C262        F278   1.358       .  S
C263        C264   1.409       .  A
C264        F267   1.358       .  S
C265        C268   1.406       .  A
C265        C272   1.405       .  A
C268        C269   1.396       .  A
C268        F273   1.358       .  S
C269        C270   1.406       .  A
C269        F275   1.358       .  S
C270        C271   1.407       .  A
C271        C272   1.396       .  A
C271        F274   1.358       .  S
C272        F276   1.358       .  S
C279        C280   1.410       .  A
C279        C284   1.405       .  A
C279        F297   1.358       .  S
C280        C285   1.497       .  S
C280        C281   1.406       .  A
C281        C282   1.402       .  A
C281        F286   1.358       .  S
C282        C283   1.413       .  A
C282        F298   1.358       .  S
C283        C284   1.408       .  A
C284        F287   1.357       .  S
C285        C288   1.405       .  A
C285        C292   1.411       .  A
C288        C289   1.401       .  A
C288        F293   1.358       .  S
C289        C290   1.412       .  A
C289        F295   1.358       .  S
C290        C291   1.409       .  A
C291        C292   1.407       .  A
C291        F294   1.357       .  S
C292        F296   1.358       .  S
C299        C300   1.406       .  A
C299        C304   1.396       .  A
C299        F317   1.358       .  S
C300        C305   1.477       .  S
C300        C301   1.405       .  A
C301        C302   1.395       .  A
C301        F306   1.358       .  S
C302        C303   1.406       .  A
C302        F318   1.358       .  S
C303        C304   1.405       .  A
C304        F307   1.358       .  S
C305        C308   1.406       .  A
C305        C312   1.404       .  A
C308        C309   1.393       .  A
C308        F313   1.358       .  S
C309        C310   1.404       .  A
C309        F315   1.358       .  S
C310        C311   1.409       .  A
C311        C312   1.397       .  A
C311        F314   1.358       .  S
C312        F316   1.358       .  S
C319        C320   1.399       .  A
C319        C324   1.402       .  A
C319        F337   1.358   1_655  S
C320        C325   1.495       .  S
C320        C321   1.403       .  A
C321        C322   1.407       .  A
C321        F326   1.358       .  S
C322        C323   1.423       .  A
C322        F338   1.356       .  S
C323        C324   1.431       .  A
C324        F327   1.356   1_655  S
C325        C328   1.404       .  A
C325        C332   1.409   1_655  A
C328        C329   1.402       .  A
C328        F333   1.358       .  S
C329        C330   1.415       .  A
C329        F335   1.358       .  S
C330        C331   1.409       .  A
C331        C332   1.408   1_655  A
C331        F334   1.357   1_655  S
C332        F336   1.357       .  S
C339        C340   1.409       .  A
C339        C344   1.406       .  A
C339        F357   1.358       .  S
C340        C345   1.503       .  S
C340        C341   1.410       .  A
C341        C342   1.405       .  A
C341        F346   1.358       .  S
C342        C343   1.410       .  A
C342        F358   1.358       .  S
C343        C344   1.412       .  A
C344        F347   1.358       .  S
C345        C348   1.408       .  A
C345        C352   1.403   1_455  A
C348        C349   1.408       .  A
C348        F353   1.358       .  S
C349        C350   1.423   1_455  A
C349        F355   1.355       .  S
C350        C351   1.424       .  A
C351        C352   1.401       .  A
C351        F354   1.356       .  S
C352        F356   1.358       .  S
C359        C360   1.405       .  A
C359        C364   1.409       .  A
C359        F377   1.358       .  S
C360        C365   1.495       .  S
C360        C361   1.399       .  A
C361        C362   1.400       .  A
C361        F366   1.358       .  S
C362        C363   1.425       .  A
C362        F378   1.356       .  S
C363        C364   1.425       .  A
C364        F367   1.355       .  S
C365        C368   1.407       .  A
C365        C372   1.407       .  A
C368        C369   1.406       .  A
C368        F373   1.358       .  S
C369        C370   1.412       .  A
C369        F375   1.357       .  S
C370        C371   1.412       .  A
C371        C372   1.404       .  A
C371        F374   1.358       .  S
C372        F376   1.358       .  S
C379        C380   1.403       .  A
C379        C384   1.403       .  A
C379        F397   1.358       .  S
C380        C385   1.502       .  S
C380        C381   1.406       .  A
C381        C382   1.405       .  A
C381        F386   1.358       .  S
C382        C383   1.422       .  A
C382        F398   1.355       .  S
C383        C384   1.428       .  A
C384        F387   1.356   1_455  S
C385        C388   1.406       .  A
C385        C392   1.413       .  A
C388        C389   1.400       .  A
C388        F393   1.358       .  S
C389        C390   1.413       .  A
C389        F395   1.358       .  S
C390        C391   1.408       .  A
C391        C392   1.409       .  A
C391        F394   1.357       .  S
C392        F396   1.357       .  S
C399        C400   1.409       .  A
C399        C404   1.408       .  A
C399        F417   1.357       .  S
C400        C405   1.502       .  S
C400        C401   1.407       .  A
C401        C402   1.409       .  A
C401        F406   1.358       .  S
C402        C403   1.416       .  A
C402        F418   1.358       .  S
C403        C404   1.411       .  A
C404        F407   1.357       .  S
C405        C408   1.404       .  A
C405        C412   1.411       .  A
C408        C409   1.404       .  A
C408        F413   1.358       .  S
C409        C410   1.414       .  A
C409        F415   1.358       .  S
C410        C411   1.412       .  A
C411        C412   1.413       .  A
C411        F414   1.357       .  S
C412        F416   1.358       .  S
C419        C420   1.406       .  A
C419        C424   1.396       .  A
C419        F437   1.358       .  S
C420        C425   1.484       .  S
C420        C421   1.405       .  A
C421        C422   1.401       .  A
C421        F426   1.358       .  S
C422        C423   1.411       .  A
C422        F438   1.358       .  S
C423        C424   1.408       .  A
C424        F427   1.358       .  S
C425        C428   1.406       .  A
C425        C432   1.407       .  A
C428        C429   1.397       .  A
C428        F433   1.358       .  S
C429        C430   1.405       .  A
C429        F435   1.358       .  S
C430        C431   1.408       .  A
C431        C432   1.401       .  A
C431        F434   1.358       .  S
C432        F436   1.358       .  S
C439        C440   1.403       .  A
C439        C444   1.396       .  A
C439        F457   1.359       .  S
C440        C445   1.468       .  S
C440        C441   1.399       .  A
C441        C442   1.395       .  A
C441        F446   1.358       .  S
C442        C443   1.411       .  A
C442        F458   1.358       .  S
C443        C444   1.408       .  A
C444        F447   1.358       .  S
C445        C448   1.401       .  A
C445        C452   1.402       .  A
C448        C449   1.395       .  A
C448        F453   1.358       .  S
C449        C450   1.410       .  A
C449        F455   1.358       .  S
C450        C451   1.407       .  A
C451        C452   1.394       .  A
C451        F454   1.358       .  S
C452        F456   1.358       .  S
C459        C460   1.406       .  A
C459        C464   1.406       .  A
C459        F477   1.357       .  S
C460        C465   1.485       .  S
C460        C461   1.402       .  A
C461        C462   1.399       .  A
C461        F466   1.358       .  S
C462        C463   1.414       .  A
C462        F478   1.358       .  S
C463        C464   1.410       .  A
C464        F467   1.357       .  S
C465        C468   1.407       .  A
C465        C472   1.402       .  A
C468        C469   1.405       .  A
C468        F473   1.357       .  S
C469        C470   1.408       .  A
C469        F475   1.357       .  S
C470        C471   1.412       .  A
C471        C472   1.399       .  A
C471        F474   1.358       .  S
C472        F476   1.358       .  S
C479        C480   1.403       .  A
C479        C484   1.395       .  A
C479        F497   1.358       .  S
C480        C485   1.475       .  S
C480        C481   1.403       .  A
C481        C482   1.397       .  A
C481        F486   1.358       .  S
C482        C483   1.409       .  A
C482        F498   1.358       .  S
C483        C484   1.409       .  A
C484        F487   1.358       .  S
C485        C488   1.404       .  A
C485        C492   1.403       .  A
C488        C489   1.394       .  A
C488        F493   1.358       .  S
C489        C490   1.406       .  A
C489        F495   1.358       .  S
C490        C491   1.410       .  A
C491        C492   1.399       .  A
C491        F494   1.358       .  S
C492        F496   1.358       .  S
C499        C500   1.407       .  A
C499        C504   1.404       .  A
C499        F517   1.358       .  S
C500        C505   1.490       .  S
C500        C501   1.404       .  A
C501        C502   1.402       .  A
C501        F506   1.358       .  S
C502        C503   1.412       .  A
C502        F518   1.358       .  S
C503        C504   1.410       .  A
C504        F507   1.357       .  S
C505        C508   1.404       .  A
C505        C512   1.408       .  A
C508        C509   1.401       .  A
C508        F513   1.358       .  S
C509        C510   1.412       .  A
C509        F515   1.358       .  S
C510        C511   1.408       .  A
C511        C512   1.404       .  A
C511        F514   1.358       .  S
C512        F516   1.358       .  S
C519        C520   1.407   1_545  A
C519        C524   1.406       .  A
C519        F537   1.358       .  S
C520        C525   1.503       .  S
C520        C521   1.410       .  A
C521        C522   1.409       .  A
C521        F526   1.358       .  S
C522        C523   1.411   1_565  A
C522        F538   1.357       .  S
C523        C524   1.413       .  A
C524        F527   1.358       .  S
C525        C528   1.411   1_565  A
C525        C532   1.405       .  A
C528        C529   1.411       .  A
C528        F533   1.358       .  S
C529        C530   1.411   1_545  A
C529        F535   1.357       .  S
C530        C531   1.415       .  A
C531        C532   1.404       .  A
C531        F534   1.358       .  S
C532        F536   1.358       .  S
C539        C540   1.403       .  A
C539        C544   1.399       .  A
C539        F557   1.358       .  S
C540        C545   1.472       .  S
C540        C541   1.401       .  A
C541        C542   1.395       .  A
C541        F546   1.358       .  S
C542        C543   1.410       .  A
C542        F558   1.358       .  S
C543        C544   1.409       .  A
C544        F547   1.358       .  S
C545        C548   1.402       .  A
C545        C552   1.402       .  A
C548        C549   1.399       .  A
C548        F553   1.358       .  S
C549        C550   1.410       .  A
C549        F555   1.358       .  S
C550        C551   1.410       .  A
C551        C552   1.395       .  A
C551        F554   1.358       .  S
C552        F556   1.358       .  S
C559        C560   1.411       .  A
C559        C564   1.412       .  A
C559        F577   1.358       .  S
C560        C565   1.507       .  S
C560        C561   1.407       .  A
C561        C562   1.408       .  A
C561        F566   1.358       .  S
C562        C563   1.415       .  A
C562        F578   1.358       .  S
C563        C564   1.411       .  A
C564        F567   1.357       .  S
C565        C568   1.404       .  A
C565        C572   1.406       .  A
C568        C569   1.408       .  A
C568        F573   1.358       .  S
C569        C570   1.424       .  A
C569        F575   1.356       .  S
C570        C571   1.427       .  A
C571        C572   1.410       .  A
C571        F574   1.355   1_455  S
C572        F576   1.358       .  S
C579        C580   1.407       .  A
C579        C584   1.410       .  A
C579        F597   1.357       .  S
C580        C585   1.503       .  S
C580        C581   1.401       .  A
C581        C582   1.405       .  A
C581        F586   1.358       .  S
C582        C583   1.431       .  A
C582        F598   1.356       .  S
C583        C584   1.421       .  A
C584        F587   1.356   1_655  S
C585        C588   1.406       .  A
C585        C592   1.411       .  A
C588        C589   1.407       .  A
C588        F593   1.358       .  S
C589        C590   1.416       .  A
C589        F595   1.358       .  S
C590        C591   1.410       .  A
C591        C592   1.410       .  A
C591        F594   1.357       .  S
C592        F596   1.357       .  S
C599        C600   1.407       .  A
C599        C604   1.411       .  A
C599        F617   1.358       .  S
C600        C605   1.506       .  S
C600        C601   1.406       .  A
C601        C602   1.403       .  A
C601        F606   1.358       .  S
C602        C603   1.422       .  A
C602        F618   1.356       .  S
C603        C604   1.425       .  A
C604        F607   1.355   1_655  S
C605        C608   1.407       .  A
C605        C612   1.414       .  A
C608        C609   1.401       .  A
C608        F613   1.358       .  S
C609        C610   1.411       .  A
C609        F615   1.358       .  S
C610        C611   1.410       .  A
C611        C612   1.413       .  A
C611        F614   1.357   1_545  S
C612        F616   1.357   1_545  S
C619        C620   1.402   1_545  A
C619        C624   1.409       .  A
C619        F637   1.358       .  S
C620        C625   1.503       .  S
C620        C621   1.404       .  A
C621        C622   1.408       .  A
C621        F626   1.358       .  S
C622        C623   1.423   1_565  A
C622        F638   1.355   1_455  S
C623        C624   1.430       .  A
C624        F627   1.356       .  S
C625        C628   1.408   1_565  A
C625        C632   1.407       .  A
C628        C629   1.409   1_545  A
C628        F633   1.357       .  S
C629        C630   1.412       .  A
C629        F635   1.357   1_565  S
C630        C631   1.414       .  A
C631        C632   1.408       .  A
C631        F634   1.358       .  S
C632        F636   1.358       .  S
C639        C640   1.404       .  A
C639        C644   1.400       .  A
C639        F657   1.358       .  S
C640        C645   1.491   1_556  S
C640        C641   1.408       .  A
C641        C642   1.408       .  A
C641        F646   1.357       .  S
C642        C643   1.409       .  A
C642        F658   1.357       .  S
C643        C644   1.412       .  A
C644        F647   1.358       .  S
C645        C648   1.404       .  A
C645        C652   1.409       .  A
C648        C649   1.402       .  A
C648        F653   1.358       .  S
C649        C650   1.411       .  A
C649        F655   1.358       .  S
C650        C651   1.407       .  A
C651        C652   1.406       .  A
C651        F654   1.357       .  S
C652        F656   1.358   1_554  S
C659        C660   1.405       .  A
C659        C664   1.397       .  A
C659        F677   1.358       .  S
C660        C665   1.476       .  S
C660        C661   1.406       .  A
C661        C662   1.393       .  A
C661        F666   1.358       .  S
C662        C663   1.405       .  A
C662        F678   1.358       .  S
C663        C664   1.407       .  A
C664        F667   1.358       .  S
C665        C668   1.406       .  A
C665        C672   1.404       .  A
C668        C669   1.394       .  A
C668        F673   1.358       .  S
C669        C670   1.405       .  A
C669        F675   1.358       .  S
C670        C671   1.409       .  A
C671        C672   1.397       .  A
C671        F674   1.358       .  S
C672        F676   1.358       .  S
C679        C680   1.405       .  A
C679        C684   1.401       .  A
C679        F697   1.358       .  S
C680        C685   1.497   1_554  S
C680        C681   1.410       .  A
C681        C682   1.410       .  A
C681        F686   1.358   1_554  S
C682        C683   1.411       .  A
C682        F698   1.357       .  S
C683        C684   1.413       .  A
C684        F687   1.358       .  S
C685        C688   1.406       .  A
C685        C692   1.409       .  A
C688        C689   1.404       .  A
C688        F693   1.358       .  S
C689        C690   1.414       .  A
C689        F695   1.358       .  S
C690        C691   1.409       .  A
C691        C692   1.407       .  A
C691        F694   1.357       .  S
C692        F696   1.357       .  S
C699        C700   1.407       .  A
C699        C704   1.409       .  A
C699        F717   1.358       .  S
C700        C705   1.508       .  S
C700        C701   1.412       .  A
C701        C702   1.411       .  A
C701        F706   1.358   1_455  S
C702        C703   1.411       .  A
C702        F718   1.357       .  S
C703        C704   1.416       .  A
C704        F707   1.358       .  S
C705        C708   1.412       .  A
C705        C712   1.407       .  A
C708        C709   1.413       .  A
C708        F713   1.357       .  S
C709        C710   1.412       .  A
C709        F715   1.357       .  S
C710        C711   1.414       .  A
C711        C712   1.405       .  A
C711        F714   1.358   1_455  S
C712        F716   1.358       .  S
C719        C720   1.401       .  A
C719        C724   1.394       .  A
C719        F737   1.358       .  S
C720        C725   1.473       .  S
C720        C721   1.403       .  A
C721        C722   1.400       .  A
C721        F726   1.358       .  S
C722        C723   1.409       .  A
C722        F738   1.358       .  S
C723        C724   1.408       .  A
C724        F727   1.358       .  S
C725        C728   1.401       .  A
C725        C732   1.403       .  A
C728        C729   1.398       .  A
C728        F733   1.358       .  S
C729        C730   1.411       .  A
C729        F735   1.358       .  S
C730        C731   1.408       .  A
C731        C732   1.396       .  A
C731        F734   1.358       .  S
C732        F736   1.358       .  S
C739        C740   1.412   1_455  A
C739        C744   1.413       .  A
C739        F757   1.358       .  S
C740        C745   1.508       .  S
C740        C741   1.407       .  A
C741        C742   1.408       .  A
C741        F746   1.358       .  S
C742        C743   1.416       .  A
C742        F758   1.358       .  S
C743        C744   1.412   1_655  A
C744        F747   1.357       .  S
C745        C748   1.403   1_655  A
C745        C752   1.407       .  A
C748        C749   1.407       .  A
C748        F753   1.358       .  S
C749        C750   1.429   1_455  A
C749        F755   1.356       .  S
C750        C751   1.422       .  A
C751        C752   1.410       .  A
C751        F754   1.355       .  S
C752        F756   1.357       .  S
C759        C760   1.407       .  A
C759        C764   1.407       .  A
C759        F777   1.358       .  S
C760        C765   1.508       .  S
C760        C761   1.406       .  A
C761        C762   1.408       .  A
C761        F766   1.358       .  S
C762        C763   1.426       .  A
C762        F778   1.355       .  S
C763        C764   1.424       .  A
C764        F767   1.357       .  S
C765        C768   1.413       .  A
C765        C772   1.409       .  A
C768        C769   1.411       .  A
C768        F773   1.358       .  S
C769        C770   1.409       .  A
C769        F775   1.357       .  S
C770        C771   1.412       .  A
C771        C772   1.405       .  A
C771        F774   1.358       .  S
C772        F776   1.358       .  S
C779        C780   1.402       .  A
C779        C784   1.396       .  A
C779        F797   1.358       .  S
C780        C785   1.484       .  S
C780        C781   1.407       .  A
C781        C782   1.406       .  A
C781        F786   1.358       .  S
C782        C783   1.410       .  A
C782        F798   1.357       .  S
C783        C784   1.411       .  A
C784        F787   1.358       .  S
C785        C788   1.403       .  A
C785        C792   1.407       .  A
C788        C789   1.400       .  A
C788        F793   1.358       .  S
C789        C790   1.411       .  A
C789        F795   1.358       .  S
C790        C791   1.407       .  A
C791        C792   1.401       .  A
C791        F794   1.358       .  S
C792        F796   1.358       .  S
C799        C800   1.406       .  A
C799        C804   1.410       .  A
C799        F817   1.358       .  S
C800        C805   1.504       .  S
C800        C801   1.403       .  A
C801        C802   1.406   1_565  A
C801        F806   1.358   1_565  S
C802        C803   1.429   1_545  A
C802        F818   1.356       .  S
C803        C804   1.422       .  A
C804        F807   1.356       .  S
C805        C808   1.408       .  A
C805        C812   1.409       .  A
C808        C809   1.408       .  A
C808        F813   1.358       .  S
C809        C810   1.413       .  A
C809        F815   1.358       .  S
C810        C811   1.412       .  A
C811        C812   1.409       .  A
C811        F814   1.357       .  S
C812        F816   1.358       .  S
C819        C820   1.400       .  A
C819        C824   1.397       .  A
C819        F837   1.358       .  S
C820        C825   1.468       .  S
C820        C821   1.401       .  A
C821        C822   1.396       .  A
C821        F826   1.358       .  S
C822        C823   1.409       .  A
C822        F838   1.358       .  S
C823        C824   1.411       .  A
C824        F827   1.358       .  S
C825        C828   1.402       .  A
C825        C832   1.399       .  A
C828        C829   1.399       .  A
C828        F833   1.358       .  S
C829        C830   1.409       .  A
C829        F835   1.358       .  S
C830        C831   1.411       .  A
C831        C832   1.395       .  A
C831        F834   1.358       .  S
C832        F836   1.358       .  S
C839        C840   1.412       .  A
C839        C844   1.406       .  A
C839        F857   1.357       .  S
C840        C845   1.497       .  S
C840        C841   1.407       .  A
C841        C842   1.397       .  A
C841        F846   1.358       .  S
C842        C843   1.411       .  A
C842        F858   1.358       .  S
C843        C844   1.408       .  A
C844        F847   1.357       .  S
C845        C848   1.412       .  A
C845        C852   1.408       .  A
C848        C849   1.404       .  A
C848        F853   1.358       .  S
C849        C850   1.407       .  A
C849        F855   1.358       .  S
C850        C851   1.409       .  A
C851        C852   1.398       .  A
C851        F854   1.358       .  S
C852        F856   1.357       .  S
C859        C860   1.403       .  A
C859        C864   1.411       .  A
C859        F877   1.358       .  S
C860        C865   1.496       .  S
C860        C861   1.400       .  A
C861        C862   1.404       .  A
C861        F866   1.358       .  S
C862        C863   1.425       .  A
C862        F878   1.355       .  S
C863        C864   1.427       .  A
C864        F867   1.355       .  S
C865        C868   1.403       .  A
C865        C872   1.408       .  A
C868        C869   1.405       .  A
C868        F873   1.358       .  S
C869        C870   1.415       .  A
C869        F875   1.358       .  S
C870        C871   1.411       .  A
C871        C872   1.411       .  A
C871        F874   1.357   1_545  S
C872        F876   1.357   1_545  S
C879        C880   1.407       .  A
C879        C884   1.405       .  A
C879        F897   1.358       .  S
C880        C885   1.505       .  S
C880        C881   1.412   1_565  A
C881        C882   1.411   1_545  A
C881        F886   1.357       .  S
C882        C883   1.411       .  A
C882        F898   1.357   1_565  S
C883        C884   1.414       .  A
C884        F887   1.358       .  S
C885        C888   1.411       .  A
C885        C892   1.408   1_565  A
C888        C889   1.408       .  A
C888        F893   1.357       .  S
C889        C890   1.410   1_565  A
C889        F895   1.357       .  S
C890        C891   1.414       .  A
C891        C892   1.406       .  A
C891        F894   1.358       .  S
C892        F896   1.358       .  S
C899        C900   1.403       .  A
C899        C904   1.396       .  A
C899        F917   1.358       .  S
C900        C905   1.469       .  S
C900        C901   1.403       .  A
C901        C902   1.391       .  A
C901        F906   1.359       .  S
C902        C903   1.408       .  A
C902        F918   1.358       .  S
C903        C904   1.408       .  A
C904        F907   1.358       .  S
C905        C908   1.402       .  A
C905        C912   1.404       .  A
C908        C909   1.395       .  A
C908        F913   1.358       .  S
C909        C910   1.407       .  A
C909        F915   1.358       .  S
C910        C911   1.406       .  A
C911        C912   1.393       .  A
C911        F914   1.358       .  S
C912        F916   1.358       .  S
