geometry optimzed in LAMMPS
_audit_creation_date              2020-11-30 
_audit_creation_method            'lammps2cif' 
_symmetry_space_group_name_H-M    'P1' 
_symmetry_Int_Tables_number       1 
_symmetry_cell_setting            triclinic 
loop_ 
_symmetry_equiv_pos_as_xyz 
  x,y,z 
_cell_length_a                    21.4901013 
_cell_length_b                    21.47975129775225 
_cell_length_c                    26.137092241504572 
_cell_angle_alpha                 90.00504500857414 
_cell_angle_beta                  89.99644941475206 
_cell_angle_gamma                 90.00153934842844 
loop_ 
_atom_site_label 
_atom_site_type_symbol 
_atom_site_fract_x 
_atom_site_fract_y 
_atom_site_fract_z 
_atom_site_charge 
O1          O  0.49300689  0.57848902  0.45664701    -0.57600
C2          C  0.55049886  0.38605354  0.44430518     0.75000
O3          O  0.42264551  0.49207411  0.30090669    -0.58800
C4          C  0.44908227  0.61507180  0.44440329     0.75000
C5          C  0.61424419  0.55180669  0.31414591     0.77400
Cd6        Cd  0.49969439  0.50058786  0.37918356     1.37500
O7          O  0.50731327  0.42325873  0.45703050    -0.57600
O8          O  0.59773389  0.57556095  0.35651323    -0.56400
C9          C  0.38501095  0.44947372  0.31417278     0.77300
O10         O  0.57684290  0.50892789  0.30105533    -0.58800
O11         O  0.57471731  0.40253959  0.40211399    -0.57300
O12         O  0.42391635  0.59783759  0.40279435    -0.57200
O13         O  0.40122855  0.42614463  0.35677751    -0.56400
C14         C  0.93711252  0.81952399  0.04017278    -0.02300
C15         C  0.93712319  0.81905299  0.47375765    -0.02300
C16         C  0.06206107  0.18161385  0.04008463    -0.02300
C17         C  0.06216645  0.18201355  0.47366504    -0.02300
C18         C  0.31824828  0.43790020  0.28743236    -0.02300
C19         C  0.31869819  0.43788582  0.22100787    -0.02300
C20         C  0.68061921  0.56325398  0.22108840    -0.02300
C21         C  0.68104209  0.56329678  0.28750691    -0.02300
C22         C  0.40919435  0.24924287  0.09751771     0.86700
C23         C  0.45012217  0.30051740  0.07494053    -0.53600
C24         C  0.50635720  0.27933959  0.05668788     0.09600
C25         C  0.51097961  0.20775343  0.06052917     0.20500
C26         C  0.40055345  0.19977475  0.05684958    -0.54300
C27         C  0.45361244  0.18357247  0.03246989     0.09700
C28         C  0.44910958  0.21726828  0.13792293    -0.53800
C29         C  0.50014822  0.18963796  0.11692096     0.10300
H30         H  0.43470144  0.34834819  0.07467264     0.14800
H31         H  0.55448716  0.18685421  0.04574891     0.00500
H32         H  0.35464578  0.18474716  0.04469640     0.15100
H33         H  0.43015270  0.20309339  0.17468326     0.14900
C34         C  0.40785005  0.24962842  0.41177824     0.86700
C35         C  0.39985365  0.20046280  0.45271693    -0.53600
C36         C  0.45330626  0.18417627  0.47652447     0.09600
C37         C  0.51046781  0.20841989  0.44791567     0.20500
C38         C  0.44947996  0.30091091  0.43386348    -0.54300
C39         C  0.50607893  0.27978203  0.45169664     0.09700
C40         C  0.44700490  0.21722706  0.37111657    -0.53800
C41         C  0.49851749  0.18988637  0.39166864     0.10300
H42         H  0.35411696  0.18559317  0.46538840     0.14800
H43         H  0.55469356  0.18825805  0.46217727     0.00500
H44         H  0.43398612  0.34867800  0.43434676     0.15100
H45         H  0.42724661  0.20248284  0.33477407     0.14900
C46         C  0.74862695  0.91000673  0.16385943     0.86700
C47         C  0.79984062  0.95109151  0.18628563    -0.53600
C48         C  0.77859747  0.00733206  0.20455659     0.09600
C49         C  0.70702314  0.01182283  0.20081517     0.20500
C50         C  0.69941893  0.90130721  0.20471262    -0.54300
C51         C  0.68303707  0.95444501  0.22897302     0.09700
C52         C  0.71642409  0.94981118  0.12349569    -0.53800
C53         C  0.68876599  0.00083166  0.14449279     0.10300
H54         H  0.84766408  0.93571947  0.18647368     0.14800
H55         H  0.68608150  0.05534667  0.21555100     0.00500
H56         H  0.68470716  0.85535325  0.21701971     0.15100
H57         H  0.70217704  0.93078187  0.08677791     0.14900
C58         C  0.74872870  0.90907949  0.34969563     0.86700
C59         C  0.69944104  0.90101436  0.30887317    -0.53600
C60         C  0.68327423  0.95441157  0.28492028     0.09600
C61         C  0.70757284  0.01167633  0.31341636     0.20500
C62         C  0.79998281  0.95060189  0.32745598    -0.54300
C63         C  0.77890294  0.00720336  0.30956391     0.09700
C64         C  0.71648992  0.94840543  0.39033883    -0.53800
C65         C  0.68911988  0.99989770  0.36972054     0.10300
H66         H  0.68441825  0.85526204  0.29634404     0.14800
H67         H  0.68744157  0.05590489  0.29909571     0.00500
H68         H  0.84770454  0.93505031  0.32694538     0.15100
H69         H  0.70184207  0.92874262  0.42674072     0.14900
C70         C  0.25098973  0.09206899  0.34976915     0.86700
C71         C  0.30036978  0.09996101  0.30899832    -0.53600
C72         C  0.31632284  0.04651151  0.28502459     0.09600
C73         C  0.29190097  0.98932507  0.31356310     0.20500
C74         C  0.19965041  0.05062085  0.32753448    -0.54300
C75         C  0.22057768  0.99393291  0.30968163     0.09700
C76         C  0.28307579  0.05271892  0.39045884    -0.53800
C77         C  0.31037502  0.00114925  0.36987563     0.10300
H78         H  0.31560757  0.14565666  0.29649985     0.14800
H79         H  0.31195789  0.94504913  0.29925991     0.00500
H80         H  0.15199489  0.06634245  0.32699876     0.15100
H81         H  0.29774754  0.07242318  0.42684203     0.14900
C82         C  0.25065066  0.09091824  0.16401281     0.86700
C83         C  0.19945603  0.04984255  0.18642920    -0.53600
C84         C  0.22072316  0.99362993  0.20467497     0.09600
C85         C  0.29232130  0.98911787  0.20093090     0.20500
C86         C  0.29984123  0.09963621  0.20486732    -0.54300
C87         C  0.31631381  0.04649363  0.22908037     0.09700
C88         C  0.28288131  0.05113086  0.12363582    -0.53800
C89         C  0.31060327  0.00014203  0.14461827     0.10300
H90         H  0.15160185  0.06515427  0.18663845     0.14800
H91         H  0.31326061  0.94558989  0.21565955     0.00500
H92         H  0.31449289  0.14560409  0.21718892     0.15100
H93         H  0.29709678  0.07016937  0.08691517     0.14900
O94         O  0.41165056  0.98811432  0.33986427    -0.57600
C95         C  0.62277201  0.00549900  0.37881296     0.75000
O96         O  0.51146967  0.08862589  0.42172254    -0.58800
C97         C  0.37674109  0.99557777  0.37892030     0.75000
C98         C  0.49489058  0.87775721  0.38258904     0.77400
Cd99       Cd  0.49974066  0.00062715  0.38076488     1.37500
O100        O  0.58782264  0.01285548  0.33977547    -0.57600
O101        O  0.50468946  0.90232263  0.33877417    -0.56400
C102        C  0.50411885  0.12352254  0.38263833     0.77300
O103        O  0.48769303  0.91266050  0.42169926    -0.58800
O104        O  0.59824955  0.99562267  0.42262782    -0.57300
O105        O  0.40131245  0.00563980  0.42268995    -0.57200
O106        O  0.49435860  0.09895213  0.33881725    -0.56400
O107        O  0.58683292  0.01170221  0.17390231    -0.57600
C108        C  0.37690646  0.99518678  0.13519567     0.75000
O109        O  0.51153113  0.08764785  0.08768509    -0.58800
C110        C  0.62248932  0.00588588  0.13507920     0.75000
C111        C  0.49432703  0.87769040  0.12637344     0.77400
Cd112      Cd  0.49973662  0.00054877  0.13079173     1.37500
O113        O  0.41258313  0.98921907  0.17398465    -0.57600
O114        O  0.50373071  0.90132136  0.17056596    -0.56400
C115        C  0.50535980  0.12336405  0.12643983     0.77300
O116        O  0.48802487  0.91340594  0.08763647    -0.58800
O117        O  0.40055452  0.00435563  0.09097899    -0.57300
O118        O  0.59883976  0.99695832  0.09082813    -0.57200
O119        O  0.49610135  0.09974534  0.17065897    -0.56400
O120        O  0.20720027  0.18973921  0.18327475    -0.57600
C121        C  0.28430969  0.38143268  0.19176242     0.75000
O122        O  0.31038820  0.29242791  0.07803482    -0.58800
C123        C  0.23218075  0.15366107  0.14990020     0.75000
C124        C  0.11846356  0.21600344  0.06937168     0.77400
Cd125      Cd  0.22459553  0.27542415  0.13059840     1.37500
O126        O  0.26938036  0.32925880  0.21120493    -0.57600
O127        O  0.11282765  0.23599070  0.11557803    -0.56400
C128        C  0.34641682  0.26763726  0.11152904     0.77300
O129        O  0.17052402  0.23122676  0.04990313    -0.58800
O130        O  0.26399150  0.38713850  0.14565804    -0.57300
O131        O  0.25205501  0.17597586  0.10821948    -0.57200
O132        O  0.32403491  0.24787071  0.15321950    -0.56400
O133        O  0.24360594  0.34397168  0.29862496    -0.57600
C134        C  0.23234885  0.15540697  0.36303440     0.75000
O135        O  0.30894454  0.29230817  0.43247566    -0.58800
C136        C  0.28164009  0.38353841  0.31775629     0.75000
C137        C  0.11653771  0.21860593  0.44329838     0.77400
Cd138      Cd  0.22096894  0.27922238  0.38055480     1.37500
O139        O  0.20853348  0.19099712  0.32882940    -0.57600
O140        O  0.11677916  0.22107077  0.39440391    -0.56400
C141        C  0.34460517  0.26831667  0.39839785     0.77300
O142        O  0.15613653  0.25660721  0.46241121    -0.58800
O143        O  0.24988849  0.17867205  0.40509031    -0.57300
O144        O  0.27915541  0.38332965  0.36664375    -0.57200
O145        O  0.32146980  0.25054588  0.35636020    -0.56400
C146        C  0.59019749  0.75152467  0.09733553     0.86700
C147        C  0.54912665  0.70032787  0.07486558    -0.53600
C148        C  0.49291050  0.72163575  0.05670121     0.09600
C149        C  0.48839827  0.79323724  0.06052716     0.20500
C150        C  0.59884879  0.80085790  0.05657786    -0.54300
C151        C  0.54572085  0.81733177  0.03239213     0.09700
C152        C  0.55045072  0.78367311  0.13778419    -0.53800
C153        C  0.49942560  0.81139359  0.11686545     0.10300
H154        H  0.56441436  0.65245124  0.07456700     0.14800
H155        H  0.44487992  0.81418961  0.04581940     0.00500
H156        H  0.64478000  0.81562266  0.04428022     0.15100
H157        H  0.56951159  0.79784733  0.17450738     0.14900
C158        C  0.59134120  0.75205442  0.41169386     0.86700
C159        C  0.59919385  0.80144319  0.45247128    -0.53600
C160        C  0.54574959  0.81734135  0.47644800     0.09600
C161        C  0.48859685  0.79289092  0.44788020     0.20500
C162        C  0.54992931  0.70067052  0.43390208    -0.54300
C163        C  0.49321957  0.72155912  0.45171736     0.09700
C164        C  0.55200242  0.78412754  0.37100393    -0.53800
C165        C  0.50042768  0.81137865  0.39158169     0.10300
H166        H  0.64487075  0.81670492  0.46498062     0.14800
H167        H  0.44432642  0.81293133  0.46217609     0.00500
H168        H  0.56574444  0.65303308  0.43444391     0.15100
H169        H  0.57169773  0.79884346  0.33462977     0.14900
O170        O  0.68896188  0.70815911  0.07786418    -0.57600
C171        C  0.88073140  0.78502700  0.06939062     0.75000
O172        O  0.79196691  0.81114203  0.18312825    -0.58800
C173        C  0.65295370  0.73306026  0.11132984     0.75000
C174        C  0.71506477  0.61961009  0.19180420     0.77400
Cd175      Cd  0.77469431  0.72543280  0.13048054     1.37500
O176        O  0.82852811  0.77026026  0.04996112    -0.57600
O177        O  0.73523093  0.61383114  0.14565933    -0.56400
C178        C  0.76706676  0.84723904  0.14973687     0.77300
O179        O  0.73015371  0.67175793  0.21122512    -0.58800
O180        O  0.88646124  0.76456563  0.11545373    -0.57300
O181        O  0.67533942  0.75290404  0.15299329    -0.57200
O182        O  0.74725302  0.82492732  0.10803138    -0.56400
O183        O  0.75570933  0.65723793  0.29874501    -0.57600
C184        C  0.76742586  0.84581380  0.36307589     0.75000
O185        O  0.69022422  0.70950231  0.43256604    -0.58800
C186        C  0.71765580  0.61767371  0.31785256     0.75000
C187        C  0.88273074  0.78250410  0.44344475     0.77400
Cd188      Cd  0.77832599  0.72202865  0.38072917     1.37500
O189        O  0.79138897  0.81016301  0.32897324    -0.57600
O190        O  0.88245369  0.78009723  0.39455569    -0.56400
C191        C  0.65464366  0.73342480  0.39840904     0.77300
O192        O  0.84319883  0.74443611  0.46257289    -0.58800
O193        O  0.74966603  0.82262766  0.40509763    -0.57300
O194        O  0.72008296  0.61792132  0.36674310    -0.57200
O195        O  0.67787491  0.75105681  0.35637021    -0.56400
O196        O  0.99207585  0.92319171  0.05427364    -0.57600
C197        C  0.05020269  0.11507273  0.06683062     0.75000
O198        O  0.92237712  0.00881886  0.21012060    -0.58800
C199        C  0.94882576  0.88604566  0.06696550     0.75000
C200        C  0.11425614  0.94937327  0.19710864     0.77400
Cd201      Cd  0.99960652  0.00056574  0.13207419     1.37500
O202        O  0.00640130  0.07837244  0.05451227    -0.57600
O203        O  0.09806047  0.92610273  0.15447345    -0.56400
C204        C  0.88500608  0.05172689  0.19705231     0.77300
O205        O  0.07660569  0.99194730  0.21040617    -0.58800
O206        O  0.07521764  0.09797439  0.10853894    -0.57300
O207        O  0.92452803  0.90259927  0.10910798    -0.57200
O208        O  0.90154853  0.07552416  0.15471363    -0.56400
O209        O  0.42210655  0.49326849  0.20682608    -0.57600
C210        C  0.61413602  0.55144471  0.19429699     0.75000
O211        O  0.50782755  0.42330974  0.05109469    -0.58800
C212        C  0.38520841  0.44973801  0.19426257     0.75000
C213        C  0.44858812  0.61519462  0.06419987     0.77400
Cd214      Cd  0.49970535  0.50056470  0.12916758     1.37500
O215        O  0.57707442  0.50810137  0.20697034    -0.57600
O216        O  0.42542125  0.59905297  0.10687996    -0.56400
C217        C  0.55063871  0.38585691  0.06420765     0.77300
O218        O  0.49102919  0.57746426  0.05079772    -0.58800
O219        O  0.59754786  0.57575797  0.15216925    -0.57300
O220        O  0.40203567  0.42516062  0.15230112    -0.57200
O221        O  0.57435365  0.40232986  0.10659913    -0.56400
O222        O  0.07733916  0.99341304  0.30449787    -0.57600
C223        C  0.88520508  0.05148000  0.31692760     0.75000
O224        O  0.99142281  0.92335362  0.46021312    -0.58800
C225        C  0.11414518  0.94977786  0.31698767     0.75000
C226        C  0.05069654  0.11519410  0.44703941     0.77400
Cd227      Cd  0.99964510  0.00054989  0.38207262     1.37500
O228        O  0.92237081  0.00825948  0.30417387    -0.57600
O229        O  0.07411189  0.09889701  0.40449093    -0.56400
C230        C  0.94869147  0.88582928  0.44704587     0.77300
O231        O  0.00811196  0.07757447  0.46033823    -0.58800
O232        O  0.90167424  0.07561926  0.35915830    -0.57300
O233        O  0.09720756  0.92504684  0.35885523    -0.57200
O234        O  0.92512691  0.90220081  0.40457192    -0.56400
C235        C  0.81870756  0.06326634  0.29012874    -0.02300
C236        C  0.81822752  0.06323710  0.22370401    -0.02300
C237        C  0.18064459  0.93790410  0.29024718    -0.02300
C238        C  0.18103865  0.93781599  0.22382379    -0.02300
C239        C  0.43708165  0.68200241  0.03754698    -0.02300
C240        C  0.43719908  0.68161383  0.47112656    -0.02300
C241        C  0.56216578  0.31906817  0.03753034    -0.02300
C242        C  0.56218889  0.31953047  0.47111325    -0.05500
C243        C  0.75053746  0.41007648  0.34735781     0.86700
C244        C  0.69936175  0.45116721  0.32491067    -0.53600
C245        C  0.72064278  0.50739935  0.30666734     0.09600
C246        C  0.79221923  0.51187105  0.31043294     0.20500
C247        C  0.79976897  0.40135249  0.30652876    -0.54300
C248        C  0.81620530  0.45447997  0.28228560     0.09700
C249        C  0.78272469  0.44987579  0.38774277    -0.53800
C250        C  0.81043818  0.50087272  0.36676203     0.10300
H251        H  0.65153257  0.43580741  0.32469065     0.14800
H252        H  0.81318482  0.55538616  0.29570619     0.00500
H253        H  0.81446447  0.35539119  0.29422705     0.15100
H254        H  0.79692482  0.43084801  0.42446967     0.14900
C255        C  0.75066088  0.40903893  0.16157097     0.86700
C256        C  0.79996691  0.40101872  0.20238065    -0.53600
C257        C  0.81608179  0.45443331  0.22633878     0.09600
C258        C  0.79177817  0.51167391  0.19781972     0.20500
C259        C  0.69939569  0.45055415  0.18380260    -0.54300
C260        C  0.72044759  0.50718235  0.20167337     0.09700
C261        C  0.78287514  0.44834974  0.12091082    -0.53800
C262        C  0.81023774  0.49986148  0.14151457     0.10300
H263        H  0.81503119  0.35528104  0.21490703     0.14800
H264        H  0.81190190  0.55591274  0.21213253     0.00500
H265        H  0.65169323  0.43495584  0.18432466     0.15100
H266        H  0.79752993  0.42866268  0.08451557     0.14900
C267        C  0.90903584  0.25153050  0.41382056     0.86700
C268        C  0.95008674  0.20032336  0.43631538    -0.53600
C269        C  0.00631141  0.22162120  0.45449599     0.09600
C270        C  0.01082948  0.29321325  0.45065840     0.20500
C271        C  0.90038393  0.30089430  0.45456229    -0.54300
C272        C  0.95349775  0.31732696  0.97877821     0.09700
C273        C  0.94881597  0.28362895  0.37337753    -0.53800
C274        C  0.99983811  0.31134022  0.39431044     0.10300
H275        H  0.93476916  0.15245722  0.43660932     0.14800
H276        H  0.05434264  0.31417099  0.46537326     0.00500
H277        H  0.85445698  0.31571106  0.96683715     0.15100
H278        H  0.92978102  0.29778872  0.33664304     0.14900
C279        C  0.90789480  0.25196638  0.09949827     0.86700
C280        C  0.89998920  0.30128651  0.05867892    -0.53600
C281        C  0.95342727  0.31725766  0.03471947     0.09600
C282        C  0.01059829  0.29287372  0.06328513     0.20500
C283        C  0.94934369  0.20060044  0.07731443    -0.54300
C284        C  0.00602552  0.22153197  0.05948122     0.09700
C285        C  0.94720976  0.28413512  0.14016157    -0.53800
C286        C  0.99876361  0.31139612  0.11956819     0.10300
H287        H  0.85429240  0.31644811  0.04614245     0.14800
H288        H  0.05485811  0.31293401  0.04898693     0.00500
H289        H  0.93358943  0.15293613  0.07679939     0.15100
H290        H  0.92751415  0.29887808  0.17653123     0.14900
C291        C  0.09005443  0.74919142  0.41382834     0.86700
C292        C  0.04912780  0.80046231  0.43638434    -0.53600
C293        C  0.99289749  0.77928819  0.45462322     0.09600
C294        C  0.98826636  0.70769251  0.45080222     0.20500
C295        C  0.09869631  0.69974828  0.45450630    -0.54300
C296        C  0.04562642  0.68352627  0.97887002     0.09700
C297        C  0.05015684  0.71717857  0.37342192    -0.53800
C298        C  0.99911657  0.68954456  0.39442036     0.10300
H299        H  0.06454017  0.84829771  0.43665008     0.14800
H300        H  0.94475617  0.68679878  0.46558225     0.00500
H301        H  0.14460991  0.68475745  0.96667152     0.15100
H302        H  0.06912894  0.70298728  0.33666926     0.14900
C303        C  0.09141701  0.74955482  0.09952564     0.86700
C304        C  0.09936503  0.70032344  0.05862892    -0.53600
C305        C  0.04590448  0.68409104  0.03481563     0.09600
C306        C  0.98876304  0.70839869  0.06342615     0.20500
C307        C  0.04982957  0.80085264  0.07741080    -0.54300
C308        C  0.99320279  0.77975402  0.05960490     0.09700
C309        C  0.05224190  0.71724743  0.14021850    -0.53800
C310        C  0.00071249  0.68990690  0.11968947     0.10300
H311        H  0.14508204  0.68536617  0.04597846     0.14800
H312        H  0.94452541  0.68824712  0.04917361     0.00500
H313        H  0.06537382  0.84860154  0.07688842     0.15100
H314        H  0.07199935  0.70253527  0.17656852     0.14900
C315        C  0.24853868  0.59102235  0.34717044     0.86700
C316        C  0.29976877  0.54996104  0.32477594    -0.53600
C317        C  0.27853554  0.49372846  0.30653150     0.09600
C318        C  0.20693315  0.48918934  0.31024777     0.20500
C319        C  0.19936647  0.59970363  0.30629646    -0.54300
C320        C  0.18293863  0.54653973  0.28208070     0.09700
C321        C  0.21629899  0.55122990  0.38753558    -0.53800
C322        C  0.18862458  0.50021348  0.36654979     0.10300
H323        H  0.34761844  0.56529102  0.32458648     0.14800
H324        H  0.18601209  0.44565041  0.29552046     0.00500
H325        H  0.18470462  0.64566153  0.29396127     0.15100
H326        H  0.20205309  0.57026545  0.42424995     0.14900
C327        C  0.24843237  0.59199549  0.16140454     0.86700
C328        C  0.19904153  0.59993729  0.20216078    -0.53600
C329        C  0.18303763  0.54651580  0.22613719     0.09600
C330        C  0.20746863  0.48930114  0.19763542     0.20500
C331        C  0.29975236  0.55056042  0.18367083    -0.54300
C332        C  0.27879282  0.49389721  0.20153459     0.09700
C333        C  0.21634756  0.55262411  0.12071852    -0.53800
C334        C  0.18902231  0.50107931  0.14131345     0.10300
H335        H  0.18381922  0.64564711  0.21464553     0.14800
H336        H  0.18739586  0.44504105  0.21194932     0.00500
H337        H  0.34742355  0.56625256  0.18421926     0.15100
H338        H  0.20170156  0.57230051  0.08432235     0.14900
O339        O  0.25565394  0.84385042  0.21262410    -0.57600
C340        C  0.26706330  0.65531564  0.14813205     0.75000
O341        O  0.19031787  0.79217805  0.07877581    -0.58800
C342        C  0.21762577  0.88342470  0.19350251     0.75000
C343        C  0.38271641  0.71857711  0.06792516     0.77400
Cd344      Cd  0.27829223  0.77911180  0.13066762     1.37500
O345        O  0.29089631  0.69090844  0.18233401    -0.57600
O346        O  0.38247393  0.72100768  0.11681859    -0.56400
C347        C  0.15467995  0.76819055  0.11286903     0.77300
O348        O  0.34312552  0.75659485  0.04883471    -0.58800
O349        O  0.24943905  0.67857583  0.10610075    -0.57300
O350        O  0.22008648  0.88319224  0.14461514    -0.57200
O351        O  0.17784510  0.75036695  0.15487818    -0.56400
O352        O  0.29195702  0.68987628  0.32796366    -0.57600
C353        C  0.21501510  0.88148485  0.31952200     0.75000
O354        O  0.18882676  0.79245345  0.43332284    -0.58800
C355        C  0.26698018  0.65376903  0.36131238     0.75000
C356        C  0.38078538  0.71597869  0.44183871     0.77400
Cd357      Cd  0.27462516  0.77550562  0.38072001     1.37500
O358        O  0.23001684  0.82932628  0.30008799    -0.57600
O359        O  0.38636666  0.73582600  0.39559293    -0.56400
C360        C  0.15281190  0.76763958  0.39982596     0.77300
O361        O  0.32880338  0.73138274  0.46135001    -0.58800
O362        O  0.23524412  0.88721207  0.36564989    -0.57300
O363        O  0.24711977  0.67604776  0.40301355    -0.57200
O364        O  0.17519289  0.74792560  0.35812057    -0.56400
O365        O  0.01138973  0.41268729  0.08944995    -0.57600
C366        C  0.99514159  0.62353755  0.12872087     0.75000
O367        O  0.91154417  0.51269696  0.17147901    -0.58800
C368        C  0.00432192  0.37776983  0.12856552     0.75000
C369        C  0.12265443  0.49549811  0.13226062     0.77400
Cd370      Cd  0.99962575  0.50062596  0.13048020     1.37500
O371        O  0.98777711  0.58864811  0.08963309    -0.57600
O372        O  0.09806357  0.50567553  0.08851853    -0.56400
C373        C  0.87658968  0.50544751  0.13242895     0.77300
O374        O  0.08775653  0.48793077  0.17130593    -0.58800
O375        O  0.00497130  0.59895381  0.17252383    -0.57300
O376        O  0.99471763  0.40231337  0.17242084    -0.57200
O377        O  0.90110721  0.49568371  0.08859400    -0.56400
O378        O  0.01121540  0.41333126  0.42357035    -0.57600
C379        C  0.99390635  0.62326436  0.38490343     0.75000
O380        O  0.08663411  0.48925857  0.33720451    -0.58800
C381        C  0.00493231  0.37762970  0.38481752     0.75000
C382        C  0.87672057  0.50585228  0.37619213     0.77400
Cd383      Cd  0.99948645  0.50044301  0.38048371     1.37500
O384        O  0.98774628  0.58754413  0.42365370    -0.57600
O385        O  0.90035193  0.49687283  0.42044096    -0.56400
C386        C  0.12233312  0.49517018  0.37598692     0.77300
O387        O  0.91239470  0.51164985  0.33738004    -0.58800
O388        O  0.00314018  0.59964678  0.34067861    -0.57300
O389        O  0.99552792  0.40126454  0.34062985    -0.57200
O390        O  0.09870875  0.50419411  0.42023228    -0.56400
O391        O  0.67078166  0.27027973  0.46128534    -0.57600
C392        C  0.84627018  0.23311549  0.39981477     0.75000
O393        O  0.76910901  0.17175977  0.29997012    -0.58800
C394        C  0.61854809  0.28500089  0.44188655     0.75000
C395        C  0.73207580  0.34731709  0.36146089     0.77400
Cd396      Cd  0.72453904  0.22550274  0.38068596     1.37500
O397        O  0.81025678  0.20821093  0.43327061    -0.57600
O398        O  0.75192854  0.32499222  0.40314382    -0.56400
C399        C  0.78424975  0.11963925  0.31940613     0.77300
O400        O  0.70716219  0.31122942  0.32806183    -0.58800
O401        O  0.82388191  0.25302707  0.35817410    -0.57300
O402        O  0.61277833  0.26450159  0.39583475    -0.57200
O403        O  0.76411373  0.11389725  0.36556140    -0.56400
O404        O  0.65612889  0.24450403  0.04870789    -0.57600
C405        C  0.84461879  0.23330646  0.11283011     0.75000
O406        O  0.70802773  0.31013338  0.18235223    -0.58800
C407        C  0.61655625  0.28252044  0.06784718     0.75000
C408        C  0.78161083  0.11760914  0.19336872     0.77400
Cd409      Cd  0.72095039  0.22199820  0.13056975     1.37500
O410        O  0.80900752  0.20936214  0.07870096    -0.57600
O411        O  0.77917238  0.11786260  0.14447918    -0.56400
C412        C  0.73195912  0.34576407  0.14822361     0.77300
O413        O  0.74355450  0.15716157  0.21248978    -0.58800
O414        O  0.82143121  0.25094879  0.15488511    -0.57300
O415        O  0.61680527  0.28007033  0.11673706    -0.57200
O416        O  0.74965788  0.32256169  0.10618931    -0.56400
O417        O  0.49300667  0.57848896  0.95664714    -0.57600
C418        C  0.55049888  0.38605345  0.94430513     0.75000
O419        O  0.42264542  0.49207420  0.80090674    -0.58800
C420        C  0.44908216  0.61507182  0.94440337     0.75000
C421        C  0.61424418  0.55180673  0.81414596     0.77400
Cd422      Cd  0.49969437  0.50058787  0.87918348     1.37500
O423        O  0.50731328  0.42325854  0.95703050    -0.57600
O424        O  0.59773389  0.57556099  0.85651329    -0.56400
C425        C  0.38501087  0.44947378  0.81417280     0.77300
O426        O  0.57684291  0.50892792  0.80105538    -0.58800
O427        O  0.57471725  0.40253957  0.90211391    -0.57300
O428        O  0.42391633  0.59783765  0.90279440    -0.57200
O429        O  0.40122855  0.42614455  0.85677744    -0.56400
C430        C  0.93711249  0.81952403  0.54017281    -0.02300
C431        C  0.93712319  0.81905298  0.97375769    -0.02300
C432        C  0.06206107  0.18161386  0.54008468    -0.02300
C433        C  0.06216646  0.18201357  0.97366499    -0.02300
C434        C  0.31824824  0.43790022  0.78743234    -0.02300
C435        C  0.31869826  0.43788586  0.72100785    -0.02300
C436        C  0.68061920  0.56325404  0.72108844    -0.02300
C437        C  0.68104205  0.56329684  0.78750697    -0.02300
C438        C  0.40919440  0.24924294  0.59751781     0.86700
C439        C  0.45012233  0.30051733  0.57494068    -0.53600
C440        C  0.50635727  0.27933955  0.55668797     0.09600
C441        C  0.51097965  0.20775339  0.56052931     0.20500
C442        C  0.40055348  0.19977478  0.55684970    -0.54300
C443        C  0.45361246  0.18357252  0.53247001     0.09700
C444        C  0.44910957  0.21726832  0.63792305    -0.53800
C445        C  0.50014823  0.18963798  0.61692112     0.10300
H446        H  0.43470152  0.34834864  0.57467281     0.14800
H447        H  0.55448712  0.18685413  0.54574902     0.00500
H448        H  0.35464593  0.18474723  0.54469658     0.15100
H449        H  0.43015262  0.20309342  0.67468343     0.14900
C450        C  0.40785004  0.24962843  0.91177826     0.86700
C451        C  0.39985374  0.20046273  0.95271682    -0.53600
C452        C  0.45330624  0.18417611  0.97652436     0.09600
C453        C  0.51046788  0.20841981  0.94791563     0.20500
C454        C  0.44947995  0.30091088  0.93386358    -0.54300
C455        C  0.50607893  0.27978198  0.95169667     0.09700
C456        C  0.44700491  0.21722711  0.87111658    -0.53800
C457        C  0.49851751  0.18988637  0.89166856     0.10300
H458        H  0.35411652  0.18559290  0.96538844     0.14800
H459        H  0.55469335  0.18825810  0.96217713     0.00500
H460        H  0.43398614  0.34867795  0.93434680     0.15100
H461        H  0.42724650  0.20248285  0.83477402     0.14900
C462        C  0.74862696  0.91000672  0.66385950     0.86700
C463        C  0.79984062  0.95109147  0.68628572    -0.53600
C464        C  0.77859747  0.00733202  0.70455664     0.09600
C465        C  0.70702315  0.01182283  0.70081521     0.20500
C466        C  0.69941892  0.90130717  0.70471269    -0.54300
C467        C  0.68303705  0.95444504  0.72897304     0.09700
C468        C  0.71642416  0.94981126  0.62349590    -0.53800
C469        C  0.68876601  0.00083166  0.64449284     0.10300
H470        H  0.84766419  0.93571942  0.68647371     0.14800
H471        H  0.68608153  0.05534669  0.71555103     0.00500
H472        H  0.68470721  0.85535345  0.71701976     0.15100
H473        H  0.70217685  0.93078156  0.58677730     0.14900
C474        C  0.74872872  0.90907950  0.84969553     0.86700
C475        C  0.69944105  0.90101453  0.80887321    -0.53600
C476        C  0.68327417  0.95441158  0.78492027     0.09600
C477        C  0.70757282  0.01167635  0.81341633     0.20500
C478        C  0.79998281  0.95060188  0.82745580    -0.54300
C479        C  0.77890292  0.00720338  0.80956384     0.09700
C480        C  0.71648996  0.94840544  0.89033875    -0.53800
C481        C  0.68911989  0.99989773  0.86972049     0.10300
H482        H  0.68441787  0.85526127  0.79634385     0.14800
H483        H  0.68744146  0.05590503  0.79909562     0.00500
H484        H  0.84770455  0.93505027  0.82694512     0.15100
H485        H  0.70184215  0.92874265  0.92674052     0.14900
C486        C  0.25098980  0.09206902  0.84976917     0.86700
C487        C  0.30037005  0.09996110  0.80899843    -0.53600
C488        C  0.31632296  0.04651150  0.78502468     0.09600
C489        C  0.29190099  0.98932508  0.81356315     0.20500
C490        C  0.19965049  0.05062094  0.82753433    -0.54300
C491        C  0.22057772  0.99393296  0.80968156     0.09700
C492        C  0.28307573  0.05271894  0.89045897    -0.53800
C493        C  0.31037496  0.00114924  0.86987571     0.10300
H494        H  0.31560775  0.14565625  0.79650016     0.14800
H495        H  0.31195792  0.94504915  0.79926000     0.00500
H496        H  0.15199500  0.06634258  0.82699849     0.15100
H497        H  0.29774731  0.07242300  0.92684196     0.14900
C498        C  0.25065069  0.09091834  0.66401293     0.86700
C499        C  0.19945595  0.04984272  0.68642929    -0.53600
C500        C  0.22072313  0.99363000  0.70467495     0.09600
C501        C  0.29232129  0.98911792  0.70093095     0.20500
C502        C  0.29984125  0.09963629  0.70486745    -0.54300
C503        C  0.31631382  0.04649367  0.72908044     0.09700
C504        C  0.28288132  0.05113093  0.62363594    -0.53800
C505        C  0.31060330  0.00014208  0.64461834     0.10300
H506        H  0.15160225  0.06515436  0.68663854     0.14800
H507        H  0.31326054  0.94558996  0.71565958     0.00500
H508        H  0.31449289  0.14560405  0.71718900     0.15100
H509        H  0.29709679  0.07016944  0.58691525     0.14900
O510        O  0.41165055  0.98811432  0.83986432    -0.57600
C511        C  0.62277203  0.00549903  0.87881305     0.75000
O512        O  0.51146969  0.08862594  0.92172262    -0.58800
C513        C  0.37674107  0.99557780  0.87892036     0.75000
C514        C  0.49489058  0.87775726  0.88258916     0.77400
Cd515      Cd  0.49974067  0.00062715  0.88076504     1.37500
O516        O  0.58782261  0.01285552  0.83977560    -0.57600
O517        O  0.50468947  0.90232271  0.83877429    -0.56400
C518        C  0.50411887  0.12352247  0.88263833     0.77300
O519        O  0.48769305  0.91266050  0.92169938    -0.58800
O520        O  0.59824963  0.99562271  0.92262793    -0.57300
O521        O  0.40131247  0.00563987  0.92268997    -0.57200
O522        O  0.49435859  0.09895190  0.83881732    -0.56400
O523        O  0.58683288  0.01170185  0.67390244    -0.57600
C524        C  0.37690648  0.99518682  0.63519570     0.75000
O525        O  0.51153115  0.08764792  0.58768522    -0.58800
C526        C  0.62248932  0.00588580  0.63507933     0.75000
C527        C  0.49432702  0.87769032  0.62637357     0.77400
Cd528      Cd  0.49973662  0.00054876  0.63079161     1.37500
O529        O  0.41258319  0.98921912  0.67398466    -0.57600
O530        O  0.50373070  0.90132121  0.67056610    -0.56400
C531        C  0.50535981  0.12336407  0.62643998     0.77300
O532        O  0.48802488  0.91340591  0.58763662    -0.58800
O533        O  0.40055448  0.00435562  0.59097898    -0.57300
O534        O  0.59883979  0.99695839  0.59082822    -0.57200
O535        O  0.49610136  0.09974532  0.67065910    -0.56400
O536        O  0.20720028  0.18973931  0.68327486    -0.57600
C537        C  0.28430971  0.38143272  0.69176234     0.75000
O538        O  0.31038826  0.29242799  0.57803477    -0.58800
C539        C  0.23218077  0.15366115  0.64990034     0.75000
C540        C  0.11846356  0.21600347  0.56937171     0.77400
Cd541      Cd  0.22459554  0.27542419  0.63059827     1.37500
O542        O  0.26938032  0.32925887  0.71120488    -0.57600
O543        O  0.11282763  0.23599072  0.61557806    -0.56400
C544        C  0.34641686  0.26763733  0.61152901     0.77300
O545        O  0.17052402  0.23122677  0.54990317    -0.58800
O546        O  0.26399156  0.38713850  0.64565795    -0.57300
O547        O  0.25205502  0.17597589  0.60821960    -0.57200
O548        O  0.32403487  0.24787067  0.65321940    -0.56400
O549        O  0.24360620  0.34397144  0.79862496    -0.57600
C550        C  0.23234890  0.15540700  0.86303444     0.75000
O551        O  0.30894454  0.29230814  0.93247572    -0.58800
C552        C  0.28164007  0.38353840  0.81775631     0.75000
C553        C  0.11653771  0.21860596  0.94329829     0.77400
Cd554      Cd  0.22096895  0.27922240  0.88055489     1.37500
O555        O  0.20853349  0.19099716  0.82882947    -0.57600
O556        O  0.11677914  0.22107078  0.89440380    -0.56400
C557        C  0.34460517  0.26831671  0.89839787     0.77300
O558        O  0.15613652  0.25660724  0.96241111    -0.58800
O559        O  0.24988849  0.17867205  0.90509039    -0.57300
O560        O  0.27915509  0.38332977  0.86664377    -0.57200
O561        O  0.32146982  0.25054600  0.85636019    -0.56400
C562        C  0.59019750  0.75152460  0.59733557     0.86700
C563        C  0.54912663  0.70032782  0.57486566    -0.53600
C564        C  0.49291051  0.72163576  0.55670121     0.09600
C565        C  0.48839835  0.79323722  0.56052723     0.20500
C566        C  0.59884873  0.80085771  0.55657788    -0.54300
C567        C  0.54572089  0.81733173  0.53239215     0.09700
C568        C  0.55045085  0.78367315  0.63778440    -0.53800
C569        C  0.49942562  0.81139355  0.61686549     0.10300
H570        H  0.56441427  0.65245124  0.57456715     0.14800
H571        H  0.44487969  0.81418977  0.54581937     0.00500
H572        H  0.64478039  0.81562244  0.54427997     0.15100
H573        H  0.56951128  0.79784711  0.67450672     0.14900
C574        C  0.59134120  0.75205445  0.91169390     0.86700
C575        C  0.59919386  0.80144319  0.95247136    -0.53600
C576        C  0.54574958  0.81734135  0.97644801     0.09600
C577        C  0.48859682  0.79289093  0.94788022     0.20500
C578        C  0.54992926  0.70067052  0.93390203    -0.54300
C579        C  0.49321956  0.72155913  0.95171732     0.09700
C580        C  0.55200237  0.78412755  0.87100416    -0.53800
C581        C  0.50042771  0.81137869  0.89158171     0.10300
H582        H  0.64487065  0.81670489  0.96498065     0.14800
H583        H  0.44432647  0.81293129  0.96217604     0.00500
H584        H  0.56574433  0.65303305  0.93444380     0.15100
H585        H  0.57169820  0.79884378  0.83462898     0.14900
O586        O  0.68896207  0.70815927  0.57786407    -0.57600
C587        C  0.88073140  0.78502703  0.56939065     0.75000
O588        O  0.79196693  0.81114203  0.68312829    -0.58800
C589        C  0.65295382  0.73306024  0.61132981     0.75000
C590        C  0.71506476  0.61961013  0.69180425     0.77400
Cd591      Cd  0.77469432  0.72543283  0.63048040     1.37500
O592        O  0.82852817  0.77026027  0.54996106    -0.57600
O593        O  0.73523094  0.61383119  0.64565939    -0.56400
C594        C  0.76706677  0.84723906  0.64973693     0.77300
O595        O  0.73015373  0.67175798  0.71122516    -0.58800
O596        O  0.88646117  0.76456568  0.61545378    -0.57300
O597        O  0.67533949  0.75290397  0.65299328    -0.57200
O598        O  0.74725302  0.82492737  0.60803144    -0.56400
O599        O  0.75570926  0.65723795  0.79874515    -0.57600
C600        C  0.76742586  0.84581381  0.86307587     0.75000
O601        O  0.69022424  0.70950246  0.93256613    -0.58800
C602        C  0.71765573  0.61767374  0.81785268     0.75000
C603        C  0.88273072  0.78250401  0.94344486     0.77400
Cd604      Cd  0.77832596  0.72202867  0.88072928     1.37500
O605        O  0.79138893  0.81016300  0.82897321    -0.57600
O606        O  0.88245360  0.78009725  0.89455580    -0.56400
C607        C  0.65464359  0.73342476  0.89840911     0.77300
O608        O  0.84319895  0.74443586  0.96257300    -0.58800
O609        O  0.74966610  0.82262772  0.90509765    -0.57300
O610        O  0.72008289  0.61792134  0.86674323    -0.57200
O611        O  0.67787467  0.75105640  0.85637011    -0.56400
O612        O  0.99207575  0.92319172  0.55427371    -0.57600
C613        C  0.05020270  0.11507278  0.56683071     0.75000
O614        O  0.92237709  0.00881888  0.71012069    -0.58800
C615        C  0.94882567  0.88604568  0.56696560     0.75000
C616        C  0.11425613  0.94937331  0.69710869     0.77400
Cd617      Cd  0.99960650  0.00056578  0.63207413     1.37500
O618        O  0.00640130  0.07837249  0.55451236    -0.57600
O619        O  0.09806043  0.92610277  0.65447353    -0.56400
C620        C  0.88500603  0.05172688  0.69705240     0.77300
O621        O  0.07660569  0.99194734  0.71040625    -0.58800
O622        O  0.07521766  0.09797445  0.60853903    -0.57300
O623        O  0.92452797  0.90259930  0.60910809    -0.57200
O624        O  0.90154849  0.07552418  0.65471374    -0.56400
O625        O  0.42210685  0.49326839  0.70682629    -0.57600
C626        C  0.61413602  0.55144468  0.69429701     0.75000
O627        O  0.50782759  0.42330967  0.55109475    -0.58800
C628        C  0.38520853  0.44973811  0.69426260     0.75000
C629        C  0.44858811  0.61519463  0.56419988     0.77400
Cd630      Cd  0.49970538  0.50056472  0.62916767     1.37500
O631        O  0.57707438  0.50810143  0.70697051    -0.57600
O632        O  0.42542127  0.59905304  0.60688000    -0.56400
C633        C  0.55063874  0.38585684  0.56420770     0.77300
O634        O  0.49102920  0.57746428  0.55079777    -0.58800
O635        O  0.59754797  0.57575763  0.65216913    -0.57300
O636        O  0.40203559  0.42516105  0.65230098    -0.57200
O637        O  0.57435366  0.40232978  0.60659920    -0.56400
O638        O  0.07733918  0.99341313  0.80449795    -0.57600
C639        C  0.88520507  0.05148003  0.81692751     0.75000
O640        O  0.99142281  0.92335367  0.96021317    -0.58800
C641        C  0.11414513  0.94977790  0.81698775     0.75000
C642        C  0.05069653  0.11519414  0.94703933     0.77400
Cd643      Cd  0.99964507  0.00054993  0.88207250     1.37500
O644        O  0.92237077  0.00825945  0.80417386    -0.57600
O645        O  0.07411199  0.09889702  0.90449090    -0.56400
C646        C  0.94869147  0.88582931  0.94704594     0.77300
O647        O  0.00811190  0.07757452  0.96033806    -0.58800
O648        O  0.90167427  0.07561940  0.85915815    -0.57300
O649        O  0.09720736  0.92504680  0.85885525    -0.57200
O650        O  0.92512690  0.90220087  0.90457200    -0.56400
C651        C  0.81870752  0.06326636  0.79012874    -0.02300
C652        C  0.81822748  0.06323707  0.72370408    -0.02300
C653        C  0.18064457  0.93790414  0.79024720    -0.02300
C654        C  0.18103864  0.93781605  0.72382380    -0.02300
C655        C  0.43708166  0.68200240  0.53754700    -0.02300
C656        C  0.43719905  0.68161388  0.97112654    -0.02300
C657        C  0.56216583  0.31906809  0.53753039    -0.02300
C658        C  0.56218894  0.31953043  0.97111321    -0.05500
C659        C  0.75053749  0.41007651  0.84735781     0.86700
C660        C  0.69936175  0.45116726  0.82491073    -0.53600
C661        C  0.72064276  0.50739939  0.80666736     0.09600
C662        C  0.79221922  0.51187109  0.81043290     0.20500
C663        C  0.79976898  0.40135258  0.80652879    -0.54300
C664        C  0.81620529  0.45447998  0.78228559     0.09700
C665        C  0.78272473  0.44987589  0.88774263    -0.53800
C666        C  0.81043828  0.50087277  0.86676198     0.10300
H667        H  0.65153255  0.43580748  0.82469083     0.14800
H668        H  0.81318479  0.55538626  0.79570610     0.00500
H669        H  0.81446480  0.35539084  0.79422707     0.15100
H670        H  0.79692486  0.43084793  0.92446999     0.14900
C671        C  0.75066085  0.40903896  0.66157104     0.86700
C672        C  0.79996689  0.40101866  0.70238072    -0.53600
C673        C  0.81608178  0.45443334  0.72633880     0.09600
C674        C  0.79177819  0.51167392  0.69781971     0.20500
C675        C  0.69939592  0.45055424  0.68380263    -0.54300
C676        C  0.72044756  0.50718239  0.70167339     0.09700
C677        C  0.78287516  0.44834964  0.62091067    -0.53800
C678        C  0.81023776  0.49986146  0.64151462     0.10300
H679        H  0.81503095  0.35528132  0.71490710     0.14800
H680        H  0.81190194  0.55591279  0.71213250     0.00500
H681        H  0.65169208  0.43495560  0.68432474     0.15100
H682        H  0.79752953  0.42866317  0.58451651     0.14900
C683        C  0.90903584  0.25153054  0.91382063     0.86700
C684        C  0.95008671  0.20032340  0.93631546    -0.53600
C685        C  0.00631142  0.22162124  0.95449603     0.09600
C686        C  0.01082949  0.29321329  0.95065845     0.20500
C687        C  0.90038394  0.30089432  0.95456236    -0.54300
C688        C  0.95349772  0.31732692  0.47877814     0.09700
C689        C  0.94881594  0.28362900  0.87337755    -0.53800
C690        C  0.99983811  0.31134027  0.89431051     0.10300
H691        H  0.93476915  0.15245727  0.93660936     0.14800
H692        H  0.05434273  0.31417105  0.96537335     0.00500
H693        H  0.85445697  0.31571104  0.46683712     0.15100
H694        H  0.92978123  0.29778856  0.83664333     0.14900
C695        C  0.90789491  0.25196642  0.59949831     0.86700
C696        C  0.89998928  0.30128648  0.55867895    -0.53600
C697        C  0.95342725  0.31725765  0.53471941     0.09600
C698        C  0.01059828  0.29287377  0.56328509     0.20500
C699        C  0.94934377  0.20060046  0.57731454    -0.54300
C700        C  0.00602555  0.22153201  0.55948121     0.09700
C701        C  0.94720979  0.28413524  0.64016176    -0.53800
C702        C  0.99876367  0.31139620  0.61956813     0.10300
H703        H  0.85429210  0.31644810  0.54614233     0.14800
H704        H  0.05485817  0.31293410  0.54898682     0.00500
H705        H  0.93358953  0.15293619  0.57679957     0.15100
H706        H  0.92751476  0.29887787  0.67653041     0.14900
C707        C  0.09005444  0.74919147  0.91382838     0.86700
C708        C  0.04912781  0.80046234  0.93638442    -0.53600
C709        C  0.99289750  0.77928820  0.95462328     0.09600
C710        C  0.98826633  0.70769249  0.95080231     0.20500
C711        C  0.09869626  0.69974832  0.95450628    -0.54300
C712        C  0.04562636  0.68352627  0.47886999     0.09700
C713        C  0.05015681  0.71717862  0.87342199    -0.53800
C714        C  0.99911657  0.68954458  0.89442041     0.10300
H715        H  0.06454012  0.84829772  0.93665010     0.14800
H716        H  0.94475646  0.68679886  0.96558228     0.00500
H717        H  0.14460945  0.68475756  0.46667144     0.15100
H718        H  0.06912892  0.70298734  0.83666936     0.14900
C719        C  0.09141700  0.74955485  0.59952565     0.86700
C720        C  0.09936495  0.70032348  0.55862897    -0.53600
C721        C  0.04590448  0.68409110  0.53481561     0.09600
C722        C  0.98876308  0.70839879  0.56342618     0.20500
C723        C  0.04982959  0.80085268  0.57741073    -0.54300
C724        C  0.99320275  0.77975406  0.55960491     0.09700
C725        C  0.05224196  0.71724745  0.64021864    -0.53800
C726        C  0.00071246  0.68990700  0.61968948     0.10300
H727        H  0.14508240  0.68536610  0.54597840     0.14800
H728        H  0.94452511  0.68824707  0.54917352     0.00500
H729        H  0.06537389  0.84860153  0.57688818     0.15100
H730        H  0.07199912  0.70253537  0.67656792     0.14900
C731        C  0.24853862  0.59102229  0.84717042     0.86700
C732        C  0.29976871  0.54996104  0.82477578    -0.53600
C733        C  0.27853543  0.49372845  0.80653141     0.09600
C734        C  0.20693306  0.48918924  0.81024771     0.20500
C735        C  0.19936636  0.59970362  0.80629646    -0.54300
C736        C  0.18293854  0.54653969  0.78208070     0.09700
C737        C  0.21629906  0.55122974  0.88753535    -0.53800
C738        C  0.18862458  0.50021342  0.86654983     0.10300
H739        H  0.34761813  0.56529101  0.82458626     0.14800
H740        H  0.18601212  0.44565056  0.79552050     0.00500
H741        H  0.18470457  0.64566130  0.79396138     0.15100
H742        H  0.20205273  0.57026597  0.92425091     0.14900
C743        C  0.24843249  0.59199553  0.66140449     0.86700
C744        C  0.19904182  0.59993724  0.70216079    -0.53600
C745        C  0.18303777  0.54651585  0.72613718     0.09600
C746        C  0.20746873  0.48930115  0.69763541     0.20500
C747        C  0.29975278  0.55056051  0.68367082    -0.54300
C748        C  0.27879289  0.49389721  0.70153453     0.09700
C749        C  0.21634761  0.55262412  0.62071856    -0.53800
C750        C  0.18902233  0.50107937  0.64131346     0.10300
H751        H  0.18381947  0.64564757  0.71464576     0.14800
H752        H  0.18739599  0.44504119  0.71194926     0.00500
H753        H  0.34742221  0.56625221  0.68421938     0.15100
H754        H  0.20170142  0.57230070  0.58432215     0.14900
O755        O  0.25565397  0.84385049  0.71262414    -0.57600
C756        C  0.26706338  0.65531576  0.64813203     0.75000
O757        O  0.19031788  0.79217808  0.57877592    -0.58800
C758        C  0.21762578  0.88342473  0.69350251     0.75000
C759        C  0.38271645  0.71857712  0.56792523     0.77400
Cd760      Cd  0.27829251  0.77911188  0.63066776     1.37500
O761        O  0.29089644  0.69090847  0.68233400    -0.57600
O762        O  0.38247405  0.72100766  0.61681867    -0.56400
C763        C  0.15467993  0.76819061  0.61286910     0.77300
O764        O  0.34312555  0.75659491  0.54883484    -0.58800
O765        O  0.24943899  0.67857610  0.60610080    -0.57300
O766        O  0.22008655  0.88319223  0.64461514    -0.57200
O767        O  0.17784509  0.75036702  0.65487825    -0.56400
O768        O  0.29195713  0.68987608  0.82796360    -0.57600
C769        C  0.21501510  0.88148489  0.81952199     0.75000
O770        O  0.18882679  0.79245356  0.93332272    -0.58800
C771        C  0.26698020  0.65376893  0.86131231     0.75000
C772        C  0.38078539  0.71597873  0.94183857     0.77400
Cd773      Cd  0.27462518  0.77550562  0.88071981     1.37500
O774        O  0.23001686  0.82932635  0.80008793    -0.57600
O775        O  0.38636672  0.73582600  0.89559277    -0.56400
C776        C  0.15281188  0.76763962  0.89982590     0.77300
O777        O  0.32880336  0.73138280  0.96134981    -0.58800
O778        O  0.23524408  0.88721207  0.86564989    -0.57300
O779        O  0.24711969  0.67604780  0.90301343    -0.57200
O780        O  0.17519285  0.74792555  0.85812055    -0.56400
O781        O  0.01138976  0.41268737  0.58945006    -0.57600
C782        C  0.99514158  0.62353768  0.62872090     0.75000
O783        O  0.91154417  0.51269696  0.67147908    -0.58800
C784        C  0.00432194  0.37776986  0.62856561     0.75000
C785        C  0.12265443  0.49549814  0.63226074     0.77400
Cd786      Cd  0.99962576  0.50062599  0.63048032     1.37500
O787        O  0.98777705  0.58864829  0.58963309    -0.57600
O788        O  0.09806353  0.50567557  0.58851865    -0.56400
C789        C  0.87658971  0.50544728  0.63242899     0.77300
O790        O  0.08775657  0.48793080  0.67130606    -0.58800
O791        O  0.00497133  0.59895388  0.67252381    -0.57300
O792        O  0.99471765  0.40231335  0.67242095    -0.57200
O793        O  0.90110727  0.49568328  0.58859411    -0.56400
O794        O  0.01121537  0.41333129  0.92357038    -0.57600
C795        C  0.99390635  0.62326441  0.88490338     0.75000
O796        O  0.08663410  0.48925852  0.83720461    -0.58800
C797        C  0.00493229  0.37762974  0.88481755     0.75000
C798        C  0.87672069  0.50585232  0.87619210     0.77400
Cd799      Cd  0.99948647  0.50044304  0.88048379     1.37500
O800        O  0.98774629  0.58754414  0.92365359    -0.57600
O801        O  0.90035211  0.49687289  0.92044094    -0.56400
C802        C  0.12233314  0.49517005  0.87598695     0.77300
O803        O  0.91239477  0.51164986  0.83737998    -0.58800
O804        O  0.00314018  0.59964687  0.84067852    -0.57300
O805        O  0.99552795  0.40126457  0.84062986    -0.57200
O806        O  0.09870881  0.50419406  0.92023236    -0.56400
O807        O  0.67078173  0.27027976  0.96128519    -0.57600
C808        C  0.84627018  0.23311554  0.89981474     0.75000
O809        O  0.76910907  0.17175983  0.79997016    -0.58800
C810        C  0.61854811  0.28500087  0.94188647     0.75000
C811        C  0.73207582  0.34731714  0.86146097     0.77400
Cd812      Cd  0.72453904  0.22550279  0.88068581     1.37500
O813        O  0.81025674  0.20821101  0.93327057    -0.57600
O814        O  0.75192855  0.32499228  0.90314392    -0.56400
C815        C  0.78424964  0.11963926  0.81940614     0.77300
O816        O  0.70716219  0.31122946  0.82806193    -0.58800
O817        O  0.82388197  0.25302702  0.85817400    -0.57300
O818        O  0.61277829  0.26450155  0.89583468    -0.57200
O819        O  0.76411342  0.11389720  0.86556137    -0.56400
O820        O  0.65612883  0.24450370  0.54870802    -0.57600
C821        C  0.84461894  0.23330650  0.61283026     0.75000
O822        O  0.70802767  0.31013341  0.68235221    -0.58800
C823        C  0.61655630  0.28252031  0.56784722     0.75000
C824        C  0.78161090  0.11760915  0.69336884     0.77400
Cd825      Cd  0.72095045  0.22199822  0.63056989     1.37500
O826        O  0.80900758  0.20936222  0.57870113    -0.57600
O827        O  0.77917270  0.11786272  0.64447932    -0.56400
C828        C  0.73195915  0.34576410  0.64822363     0.77300
O829        O  0.74355449  0.15716153  0.71248987    -0.58800
O830        O  0.82143147  0.25094880  0.65488528    -0.57300
O831        O  0.61680535  0.28007038  0.61673711    -0.57200
O832        O  0.74965796  0.32256173  0.60618936    -0.56400
loop_ 
_geom_bond_atom_site_label_1 
_geom_bond_atom_site_label_2 
_geom_bond_distance 
_geom_bond_site_symmetry_2 
_ccdc_geom_bond_type 
O1            C4   1.269       .  A
O1           Cd6   2.630       .  S
C2           O11   1.270       .  A
C2            O7   1.269       .  A
C2          C242   1.611       .  S
O3            C9   1.269       .  A
O3           Cd6   2.638       .  S
C4           O12   1.270       .  A
C4          C240   1.611       .  S
C5           O10   1.269       .  A
C5            O8   1.270       .  A
C5           C21   1.614       .  S
Cd6          O13   2.716       .  S
Cd6          O12   2.720       .  S
Cd6          O11   2.719       .  S
Cd6           O7   2.632       .  S
Cd6          O10   2.636       .  S
Cd6           O8   2.717       .  S
C9           O13   1.270       .  A
C9           C18   1.615       .  S
C14         C171   1.613       .  S
C14         C199   1.611       .  S
C14         C308   1.562       .  S
C14         C431   1.736   1_554  S
C15         C187   1.616       .  S
C15         C230   1.615       .  S
C15         C293   1.554       .  S
C15         C430   1.736       .  S
C16         C124   1.613       .  S
C16         C197   1.611       .  S
C16         C284   1.563       .  S
C16         C433   1.736   1_554  S
C17         C137   1.616       .  S
C17         C226   1.614       .  S
C17         C269   1.554       .  S
C17         C432   1.736       .  S
C18         C136   1.616       .  S
C18         C317   1.554       .  S
C18          C19   1.736       .  S
C19         C121   1.613       .  S
C19         C212   1.611       .  S
C19         C332   1.563       .  S
C20         C174   1.612       .  S
C20         C210   1.611       .  S
C20         C260   1.562       .  S
C20          C21   1.736       .  S
C21         C186   1.616       .  S
C21         C245   1.555       .  S
C22         C128   1.453       .  S
C22          C23   1.528       .  S
C22          C28   1.524       .  S
C22          C26   1.514       .  S
C23          H30   1.080       .  S
C23          C24   1.377       .  D
C24          C25   1.544       .  S
C24         C241   1.555       .  S
C25          C29   1.542       .  S
C25          C27   1.526       .  S
C25          H31   1.107       .  S
C26          H32   1.086       .  S
C26          C27   1.352       .  D
C27         C452   1.462   1_554  S
C28          H33   1.087       .  S
C28          C29   1.363       .  D
C29         C115   1.449       .  S
C34         C141   1.460       .  S
C34          C35   1.513       .  S
C34          C40   1.524       .  S
C34          C38   1.532       .  S
C35          H42   1.085       .  S
C35          C36   1.352       .  D
C36          C37   1.529       .  S
C36         C443   1.462       .  S
C37          C41   1.545       .  S
C37          C39   1.539       .  S
C37          H43   1.109       .  S
C38          H44   1.079       .  S
C38          C39   1.379       .  D
C39         C242   1.562       .  S
C40          H45   1.088       .  S
C40          C41   1.363       .  D
C41         C102   1.450       .  S
C46         C178   1.453       .  S
C46          C47   1.528       .  S
C46          C52   1.524       .  S
C46          C50   1.514       .  S
C47          H54   1.079       .  S
C47          C48   1.377   1_565  D
C48          C49   1.544       .  S
C48         C236   1.555       .  S
C49          C53   1.542       .  S
C49          C51   1.525   1_545  S
C49          H55   1.107       .  S
C50          H56   1.085       .  S
C50          C51   1.352       .  D
C51          C60   1.462       .  S
C52          H57   1.087       .  S
C52          C53   1.362   1_565  D
C53         C110   1.449       .  S
C58         C184   1.460       .  S
C58          C59   1.513       .  S
C58          C64   1.524       .  S
C58          C62   1.532       .  S
C59          H66   1.085       .  S
C59          C60   1.352       .  D
C60          C61   1.530   1_565  S
C61          C65   1.545   1_545  S
C61          C63   1.539       .  S
C61          H67   1.109       .  S
C62          H68   1.079       .  S
C62          C63   1.379   1_565  D
C63         C235   1.562       .  S
C64          H69   1.088       .  S
C64          C65   1.364       .  D
C65          C95   1.450   1_565  S
C70         C134   1.460       .  S
C70          C71   1.513       .  S
C70          C76   1.524       .  S
C70          C74   1.532       .  S
C71          H78   1.085       .  S
C71          C72   1.352       .  D
C72          C73   1.530   1_545  S
C72          C87   1.462       .  S
C73          C77   1.545   1_565  S
C73          C75   1.539       .  S
C73          H79   1.109       .  S
C74          H80   1.078       .  S
C74          C75   1.379   1_545  D
C75         C237   1.563       .  S
C76          H81   1.088       .  S
C76          C77   1.364       .  D
C77          C97   1.451   1_545  S
C82         C123   1.453       .  S
C82          C83   1.527       .  S
C82          C88   1.524       .  S
C82          C86   1.514       .  S
C83          H90   1.080       .  S
C83          C84   1.376   1_545  D
C84          C85   1.545       .  S
C84         C238   1.554       .  S
C85          C89   1.542   1_565  S
C85          C87   1.525   1_565  S
C85          H91   1.107       .  S
C86          H92   1.085       .  S
C86          C87   1.352       .  D
C88          H93   1.087       .  S
C88          C89   1.362       .  D
C89         C108   1.450   1_545  S
O94          C97   1.277       .  A
O94         Cd99   2.191   1_565  S
C95         O104   1.278   1_545  A
C95         O100   1.277       .  A
O96         C102   1.277       .  A
O96         Cd99   2.187       .  S
C97         O105   1.278   1_565  A
C98         O103   1.277       .  A
C98         O101   1.278       .  A
C98         C165   1.450       .  S
Cd99        O106   2.383       .  S
Cd99        O105   2.385       .  S
Cd99        O104   2.386   1_545  S
Cd99        O100   2.191       .  S
Cd99        O103   2.187   1_545  S
Cd99        O101   2.382   1_545  S
C102        O106   1.278       .  A
O107        C110   1.278       .  A
O107       Cd112   2.198       .  S
C108        O117   1.278   1_565  A
C108        O113   1.278       .  A
O109        C115   1.278       .  A
O109       Cd112   2.199       .  S
C110        O118   1.278   1_545  A
C111        O116   1.278       .  A
C111        O114   1.278       .  A
C111        C153   1.450       .  S
Cd112       O119   2.373       .  S
Cd112       O118   2.373   1_545  S
Cd112       O117   2.373       .  S
Cd112       O113   2.200   1_545  S
Cd112       O116   2.200   1_545  S
Cd112       O114   2.373   1_545  S
C115        O119   1.278       .  A
O120        C123   1.284       .  A
O120       Cd125   2.329       .  S
C121        O130   1.288       .  A
C121        O126   1.272       .  A
O122        C128   1.284       .  A
O122       Cd125   2.328       .  S
C123        O131   1.265       .  A
C124        O129   1.272       .  A
C124        O127   1.287       .  A
Cd125       O132   2.295       .  S
Cd125       O131   2.292       .  S
Cd125       O130   2.575       .  S
Cd125       O126   2.589       .  S
Cd125       O129   2.588       .  S
Cd125       O127   2.577       .  S
C128        O132   1.265       .  A
O133        C136   1.281       .  A
O133       Cd138   2.599       .  S
C134        O143   1.265       .  A
C134        O139   1.283       .  A
O135        C141   1.283       .  A
O135       Cd138   2.344       .  S
C136        O144   1.279       .  A
C137        O142   1.281       .  A
C137        O140   1.279       .  A
Cd138       O145   2.333       .  S
Cd138       O144   2.588       .  S
Cd138       O143   2.337       .  S
Cd138       O139   2.343       .  S
Cd138       O142   2.599       .  S
Cd138       O140   2.589       .  S
C141        O145   1.265       .  A
C146        C173   1.453       .  S
C146        C147   1.527       .  S
C146        C152   1.524       .  S
C146        C150   1.514       .  S
C147        H154   1.080       .  S
C147        C148   1.376       .  D
C148        C149   1.544       .  S
C148        C239   1.554       .  S
C149        C153   1.542       .  S
C149        C151   1.525       .  S
C149        H155   1.107       .  S
C150        H156   1.085       .  S
C150        C151   1.352       .  D
C151        C576   1.462   1_554  S
C152        H157   1.087       .  S
C152        C153   1.362       .  D
C158        C191   1.460       .  S
C158        C159   1.513       .  S
C158        C164   1.523       .  S
C158        C162   1.532       .  S
C159        H166   1.085       .  S
C159        C160   1.352       .  D
C160        C161   1.530       .  S
C160        C567   1.462       .  S
C161        C165   1.545       .  S
C161        C163   1.539       .  S
C161        H167   1.109       .  S
C162        H168   1.078       .  S
C162        C163   1.380       .  D
C163        C240   1.563       .  S
C164        H169   1.088       .  S
C164        C165   1.364       .  D
O170        C173   1.284       .  A
O170       Cd175   2.329       .  S
C171        O180   1.288       .  A
C171        O176   1.272       .  A
O172        C178   1.284       .  A
O172       Cd175   2.328       .  S
C173        O181   1.264       .  A
C174        O179   1.272       .  A
C174        O177   1.288       .  A
Cd175       O182   2.293       .  S
Cd175       O181   2.292       .  S
Cd175       O180   2.575       .  S
Cd175       O176   2.587       .  S
Cd175       O179   2.588       .  S
Cd175       O177   2.574       .  S
C178        O182   1.265       .  A
O183        C186   1.281       .  A
O183       Cd188   2.601       .  S
C184        O193   1.265       .  A
C184        O189   1.283       .  A
O185        C191   1.283       .  A
O185       Cd188   2.344       .  S
C186        O194   1.279       .  A
C187        O192   1.281       .  A
C187        O190   1.279       .  A
Cd188       O195   2.335       .  S
Cd188       O194   2.589       .  S
Cd188       O193   2.335       .  S
Cd188       O189   2.344       .  S
Cd188       O192   2.598       .  S
Cd188       O190   2.587       .  S
C191        O195   1.265       .  A
O196        C199   1.269       .  A
O196       Cd201   2.631   1_565  S
C197        O206   1.270       .  A
C197        O202   1.269       .  A
O198        C204   1.269       .  A
O198       Cd201   2.636       .  S
C199        O207   1.270       .  A
C200        O205   1.270       .  A
C200        O203   1.270       .  A
C200        C238   1.615       .  S
Cd201       O208   2.717       .  S
Cd201       O207   2.719   1_545  S
Cd201       O206   2.720   1_655  S
Cd201       O202   2.631   1_655  S
Cd201       O205   2.639   1_645  S
Cd201       O203   2.716   1_645  S
C204        O208   1.270       .  A
C204        C236   1.614       .  S
O209        C212   1.269       .  A
O209       Cd214   2.632       .  S
C210        O219   1.270       .  A
C210        O215   1.269       .  A
O211        C217   1.269       .  A
O211       Cd214   2.636       .  S
C212        O220   1.270       .  A
C213        O218   1.269       .  A
C213        O216   1.270       .  A
C213        C239   1.614       .  S
Cd214       O221   2.715       .  S
Cd214       O220   2.719       .  S
Cd214       O219   2.719       .  S
Cd214       O215   2.632       .  S
Cd214       O218   2.638       .  S
Cd214       O216   2.714       .  S
C217        O221   1.270       .  A
C217        C241   1.614       .  S
O222        C225   1.269       .  A
O222       Cd227   2.631   1_465  S
C223        O232   1.270       .  A
C223        O228   1.269       .  A
C223        C235   1.612       .  S
O224        C230   1.269       .  A
O224       Cd227   2.637   1_565  S
C225        O233   1.270       .  A
C225        C237   1.611       .  S
C226        O231   1.269       .  A
C226        O229   1.270       .  A
Cd227       O234   2.715   1_545  S
Cd227       O233   2.719   1_645  S
Cd227       O232   2.719       .  S
Cd227       O228   2.633       .  S
Cd227       O231   2.637   1_655  S
Cd227       O229   2.714   1_655  S
C230        O234   1.270       .  A
C235        C399   1.612       .  S
C235        C236   1.736       .  S
C236        C408   1.616       .  S
C237        C353   1.612       .  S
C237        C238   1.736       .  S
C238        C342   1.616       .  S
C239        C343   1.616       .  S
C239        C656   1.736   1_554  S
C240        C356   1.613       .  S
C240        C655   1.736       .  S
C241        C407   1.616       .  S
C241        C658   1.736   1_554  S
C242        C394   1.613       .  S
C242        C657   1.736       .  S
C243        C395   1.453       .  S
C243        C244   1.527       .  S
C243        C249   1.524       .  S
C243        C247   1.514       .  S
C244        H251   1.080       .  S
C244        C245   1.377       .  D
C245        C246   1.544       .  S
C246        C250   1.542       .  S
C246        C248   1.525       .  S
C246        H252   1.107       .  S
C247        H253   1.085       .  S
C247        C248   1.352       .  D
C248        C257   1.462       .  S
C249        H254   1.087       .  S
C249        C250   1.362       .  D
C250        C382   1.450       .  S
C255        C412   1.460       .  S
C255        C256   1.513       .  S
C255        C261   1.524       .  S
C255        C259   1.532       .  S
C256        H263   1.085       .  S
C256        C257   1.352       .  D
C257        C258   1.530       .  S
C258        C262   1.545       .  S
C258        C260   1.539       .  S
C258        H264   1.109       .  S
C259        H265   1.079       .  S
C259        C260   1.379       .  D
C261        H266   1.088       .  S
C261        C262   1.364       .  D
C262        C373   1.451       .  S
C267        C392   1.453       .  S
C267        C268   1.528       .  S
C267        C273   1.524       .  S
C267        C271   1.514       .  S
C268        H275   1.080       .  S
C268        C269   1.377   1_655  D
C269        C270   1.544       .  S
C270        C274   1.542   1_455  S
C270        C688   1.525   1_455  S
C270        H276   1.107       .  S
C271        H693   1.085       .  S
C271        C688   1.352       .  D
C272        C686   1.525   1_655  S
C272        C687   1.352       .  D
C272        C281   1.462   1_556  S
C273        H278   1.087       .  S
C273        C274   1.362       .  D
C274        C381   1.449   1_655  S
H277        C687   1.085       .  S
C279        C405   1.460       .  S
C279        C280   1.513       .  S
C279        C285   1.523       .  S
C279        C283   1.532       .  S
C280        H287   1.085       .  S
C280        C281   1.352       .  D
C281        C282   1.530   1_655  S
C282        C286   1.545   1_455  S
C282        C284   1.539       .  S
C282        H288   1.109       .  S
C283        H289   1.078       .  S
C283        C284   1.380   1_655  D
C285        H290   1.088       .  S
C285        C286   1.364       .  D
C286        C368   1.450   1_655  S
C291        C360   1.453       .  S
C291        C292   1.528       .  S
C291        C297   1.524       .  S
C291        C295   1.514       .  S
C292        H299   1.080       .  S
C292        C293   1.376   1_455  D
C293        C294   1.544       .  S
C294        C298   1.542       .  S
C294        C712   1.526   1_655  S
C294        H300   1.107       .  S
C295        H717   1.086       .  S
C295        C712   1.352       .  D
C296        C710   1.526   1_455  S
C296        C711   1.352       .  D
C296        C305   1.462   1_556  S
C297        H302   1.087       .  S
C297        C298   1.363   1_455  D
C298        C379   1.450       .  S
H301        C711   1.086       .  S
C303        C347   1.460       .  S
C303        C304   1.513       .  S
C303        C309   1.524       .  S
C303        C307   1.532       .  S
C304        H311   1.085       .  S
C304        C305   1.352       .  D
C305        C306   1.530   1_455  S
C306        C310   1.545   1_655  S
C306        C308   1.539       .  S
C306        H312   1.109       .  S
C307        H313   1.079       .  S
C307        C308   1.379   1_455  D
C309        H314   1.088       .  S
C309        C310   1.363       .  D
C310        C366   1.450   1_455  S
C315        C355   1.453       .  S
C315        C316   1.527       .  S
C315        C321   1.524       .  S
C315        C319   1.514       .  S
C316        H323   1.080       .  S
C316        C317   1.376       .  D
C317        C318   1.545       .  S
C318        C322   1.542       .  S
C318        C320   1.525       .  S
C318        H324   1.107       .  S
C319        H325   1.085       .  S
C319        C320   1.352       .  D
C320        C329   1.462       .  S
C321        H326   1.087       .  S
C321        C322   1.362       .  D
C322        C386   1.450       .  S
C327        C340   1.460       .  S
C327        C328   1.513       .  S
C327        C333   1.524       .  S
C327        C331   1.532       .  S
C328        H335   1.085       .  S
C328        C329   1.352       .  D
C329        C330   1.530       .  S
C330        C334   1.545       .  S
C330        C332   1.539       .  S
C330        H336   1.109       .  S
C331        H337   1.079       .  S
C331        C332   1.379       .  D
C333        H338   1.088       .  S
C333        C334   1.364       .  D
C334        C369   1.451       .  S
O339        C342   1.281       .  A
O339       Cd344   2.600       .  S
C340        O349   1.265       .  A
C340        O345   1.283       .  A
O341        C347   1.283       .  A
O341       Cd344   2.344       .  S
C342        O350   1.279       .  A
C343        O348   1.281       .  A
C343        O346   1.279       .  A
Cd344       O351   2.333       .  S
Cd344       O350   2.588       .  S
Cd344       O349   2.337       .  S
Cd344       O345   2.342       .  S
Cd344       O348   2.598       .  S
Cd344       O346   2.589       .  S
C347        O351   1.265       .  A
O352        C355   1.284       .  A
O352       Cd357   2.329       .  S
C353        O362   1.288       .  A
C353        O358   1.272       .  A
O354        C360   1.284       .  A
O354       Cd357   2.329       .  S
C355        O363   1.265       .  A
C356        O361   1.272       .  A
C356        O359   1.287       .  A
Cd357       O364   2.295       .  S
Cd357       O363   2.292       .  S
Cd357       O362   2.575       .  S
Cd357       O358   2.588       .  S
Cd357       O361   2.588       .  S
Cd357       O359   2.578       .  S
C360        O364   1.264       .  A
O365        C368   1.277       .  A
O365       Cd370   2.187   1_455  S
C366        O375   1.278   1_655  A
C366        O371   1.277       .  A
O367        C373   1.277       .  A
O367       Cd370   2.190       .  S
C368        O376   1.278   1_455  A
C369        O374   1.277       .  A
C369        O372   1.278       .  A
Cd370       O377   2.386       .  S
Cd370       O376   2.382       .  S
Cd370       O375   2.384   1_655  S
Cd370       O371   2.186       .  S
Cd370       O374   2.191   1_655  S
Cd370       O372   2.385   1_655  S
C373        O377   1.278       .  A
O378        C381   1.278       .  A
O378       Cd383   2.198   1_455  S
C379        O388   1.278   1_655  A
C379        O384   1.278       .  A
O380        C386   1.278       .  A
O380       Cd383   2.201   1_455  S
C381        O389   1.278   1_455  A
C382        O387   1.278       .  A
C382        O385   1.278       .  A
Cd383       O390   2.373   1_655  S
Cd383       O389   2.373       .  S
Cd383       O388   2.373   1_655  S
Cd383       O384   2.199       .  S
Cd383       O387   2.198       .  S
Cd383       O385   2.374       .  S
C386        O390   1.278       .  A
O391        C394   1.272       .  A
O391       Cd396   2.588       .  S
C392        O401   1.265       .  A
C392        O397   1.284       .  A
O393        C399   1.272       .  A
O393       Cd396   2.588       .  S
C394        O402   1.288       .  A
C395        O400   1.284       .  A
C395        O398   1.265       .  A
Cd396       O403   2.574       .  S
Cd396       O402   2.574       .  S
Cd396       O401   2.292       .  S
Cd396       O397   2.328       .  S
Cd396       O400   2.329       .  S
Cd396       O398   2.293       .  S
C399        O403   1.288       .  A
O404        C407   1.281       .  A
O404       Cd409   2.599       .  S
C405        O414   1.265       .  A
C405        O410   1.283       .  A
O406        C412   1.283       .  A
O406       Cd409   2.344       .  S
C407        O415   1.279       .  A
C408        O413   1.281       .  A
C408        O411   1.279       .  A
Cd409       O416   2.335       .  S
Cd409       O415   2.588       .  S
Cd409       O414   2.335       .  S
Cd409       O410   2.344       .  S
Cd409       O413   2.600       .  S
Cd409       O411   2.589       .  S
C412        O416   1.265       .  A
O417        C420   1.269       .  A
O417       Cd422   2.630       .  S
C418        O427   1.270       .  A
C418        O423   1.269       .  A
C418        C658   1.611       .  S
O419        C425   1.269       .  A
O419       Cd422   2.638       .  S
C420        O428   1.270       .  A
C420        C656   1.611       .  S
C421        O426   1.269       .  A
C421        O424   1.270       .  A
C421        C437   1.614       .  S
Cd422       O429   2.716       .  S
Cd422       O428   2.720       .  S
Cd422       O427   2.719       .  S
Cd422       O423   2.632       .  S
Cd422       O426   2.636       .  S
Cd422       O424   2.717       .  S
C425        O429   1.270       .  A
C425        C434   1.615       .  S
C430        C587   1.613       .  S
C430        C615   1.611       .  S
C430        C724   1.562       .  S
C431        C603   1.616       .  S
C431        C646   1.615       .  S
C431        C709   1.554       .  S
C432        C540   1.613       .  S
C432        C613   1.611       .  S
C432        C700   1.563       .  S
C433        C553   1.616       .  S
C433        C642   1.614       .  S
C433        C685   1.554       .  S
C434        C552   1.616       .  S
C434        C733   1.554       .  S
C434        C435   1.736       .  S
C435        C537   1.613       .  S
C435        C628   1.611       .  S
C435        C748   1.563       .  S
C436        C590   1.612       .  S
C436        C626   1.611       .  S
C436        C676   1.562       .  S
C436        C437   1.736       .  S
C437        C602   1.616       .  S
C437        C661   1.555       .  S
C438        C544   1.453       .  S
C438        C439   1.528       .  S
C438        C444   1.524       .  S
C438        C442   1.514       .  S
C439        H446   1.080       .  S
C439        C440   1.377       .  D
C440        C441   1.544       .  S
C440        C657   1.555       .  S
C441        C445   1.542       .  S
C441        C443   1.526       .  S
C441        H447   1.107       .  S
C442        H448   1.086       .  S
C442        C443   1.352       .  D
C444        H449   1.087       .  S
C444        C445   1.363       .  D
C445        C531   1.449       .  S
C450        C557   1.460       .  S
C450        C451   1.513       .  S
C450        C456   1.524       .  S
C450        C454   1.532       .  S
C451        H458   1.085       .  S
C451        C452   1.352       .  D
C452        C453   1.529       .  S
C453        C457   1.545       .  S
C453        C455   1.539       .  S
C453        H459   1.109       .  S
C454        H460   1.079       .  S
C454        C455   1.379       .  D
C455        C658   1.562       .  S
C456        H461   1.088       .  S
C456        C457   1.363       .  D
C457        C518   1.450       .  S
C462        C594   1.453       .  S
C462        C463   1.528       .  S
C462        C468   1.524       .  S
C462        C466   1.514       .  S
C463        H470   1.079       .  S
C463        C464   1.377   1_565  D
C464        C465   1.544       .  S
C464        C652   1.555       .  S
C465        C469   1.542       .  S
C465        C467   1.525   1_545  S
C465        H471   1.107       .  S
C466        H472   1.085       .  S
C466        C467   1.352       .  D
C467        C476   1.462       .  S
C468        H473   1.087       .  S
C468        C469   1.362   1_565  D
C469        C526   1.449       .  S
C474        C600   1.460       .  S
C474        C475   1.513       .  S
C474        C480   1.524       .  S
C474        C478   1.532       .  S
C475        H482   1.085       .  S
C475        C476   1.352       .  D
C476        C477   1.530   1_565  S
C477        C481   1.545   1_545  S
C477        C479   1.539       .  S
C477        H483   1.109       .  S
C478        H484   1.079       .  S
C478        C479   1.379   1_565  D
C479        C651   1.562       .  S
C480        H485   1.088       .  S
C480        C481   1.364       .  D
C481        C511   1.450   1_565  S
C486        C550   1.460       .  S
C486        C487   1.513       .  S
C486        C492   1.524       .  S
C486        C490   1.532       .  S
C487        H494   1.085       .  S
C487        C488   1.352       .  D
C488        C489   1.530   1_545  S
C488        C503   1.462       .  S
C489        C493   1.545   1_565  S
C489        C491   1.539       .  S
C489        H495   1.109       .  S
C490        H496   1.078       .  S
C490        C491   1.379   1_545  D
C491        C653   1.563       .  S
C492        H497   1.088       .  S
C492        C493   1.364       .  D
C493        C513   1.451   1_545  S
C498        C539   1.453       .  S
C498        C499   1.527       .  S
C498        C504   1.524       .  S
C498        C502   1.514       .  S
C499        H506   1.080       .  S
C499        C500   1.376   1_545  D
C500        C501   1.545       .  S
C500        C654   1.554       .  S
C501        C505   1.542   1_565  S
C501        C503   1.525   1_565  S
C501        H507   1.107       .  S
C502        H508   1.085       .  S
C502        C503   1.352       .  D
C504        H509   1.087       .  S
C504        C505   1.362       .  D
C505        C524   1.450   1_545  S
O510        C513   1.277       .  A
O510       Cd515   2.191   1_565  S
C511        O520   1.278   1_545  A
C511        O516   1.277       .  A
O512        C518   1.277       .  A
O512       Cd515   2.187       .  S
C513        O521   1.278   1_565  A
C514        O519   1.277       .  A
C514        O517   1.278       .  A
C514        C581   1.450       .  S
Cd515       O522   2.383       .  S
Cd515       O521   2.385       .  S
Cd515       O520   2.386   1_545  S
Cd515       O516   2.191       .  S
Cd515       O519   2.187   1_545  S
Cd515       O517   2.382   1_545  S
C518        O522   1.278       .  A
O523        C526   1.278       .  A
O523       Cd528   2.198       .  S
C524        O533   1.278   1_565  A
C524        O529   1.278       .  A
O525        C531   1.278       .  A
O525       Cd528   2.199       .  S
C526        O534   1.278   1_545  A
C527        O532   1.278       .  A
C527        O530   1.278       .  A
C527        C569   1.450       .  S
Cd528       O535   2.373       .  S
Cd528       O534   2.373   1_545  S
Cd528       O533   2.373       .  S
Cd528       O529   2.200   1_545  S
Cd528       O532   2.200   1_545  S
Cd528       O530   2.373   1_545  S
C531        O535   1.278       .  A
O536        C539   1.284       .  A
O536       Cd541   2.329       .  S
C537        O546   1.288       .  A
C537        O542   1.272       .  A
O538        C544   1.284       .  A
O538       Cd541   2.328       .  S
C539        O547   1.265       .  A
C540        O545   1.272       .  A
C540        O543   1.287       .  A
Cd541       O548   2.295       .  S
Cd541       O547   2.292       .  S
Cd541       O546   2.575       .  S
Cd541       O542   2.589       .  S
Cd541       O545   2.588       .  S
Cd541       O543   2.577       .  S
C544        O548   1.265       .  A
O549        C552   1.281       .  A
O549       Cd554   2.599       .  S
C550        O559   1.265       .  A
C550        O555   1.283       .  A
O551        C557   1.283       .  A
O551       Cd554   2.344       .  S
C552        O560   1.279       .  A
C553        O558   1.281       .  A
C553        O556   1.279       .  A
Cd554       O561   2.333       .  S
Cd554       O560   2.588       .  S
Cd554       O559   2.337       .  S
Cd554       O555   2.343       .  S
Cd554       O558   2.599       .  S
Cd554       O556   2.589       .  S
C557        O561   1.265       .  A
C562        C589   1.453       .  S
C562        C563   1.527       .  S
C562        C568   1.524       .  S
C562        C566   1.514       .  S
C563        H570   1.080       .  S
C563        C564   1.376       .  D
C564        C565   1.544       .  S
C564        C655   1.554       .  S
C565        C569   1.542       .  S
C565        C567   1.525       .  S
C565        H571   1.107       .  S
C566        H572   1.085       .  S
C566        C567   1.352       .  D
C568        H573   1.087       .  S
C568        C569   1.362       .  D
C574        C607   1.460       .  S
C574        C575   1.513       .  S
C574        C580   1.523       .  S
C574        C578   1.532       .  S
C575        H582   1.085       .  S
C575        C576   1.352       .  D
C576        C577   1.530       .  S
C577        C581   1.545       .  S
C577        C579   1.539       .  S
C577        H583   1.109       .  S
C578        H584   1.078       .  S
C578        C579   1.380       .  D
C579        C656   1.563       .  S
C580        H585   1.088       .  S
C580        C581   1.364       .  D
O586        C589   1.284       .  A
O586       Cd591   2.329       .  S
C587        O596   1.288       .  A
C587        O592   1.272       .  A
O588        C594   1.284       .  A
O588       Cd591   2.328       .  S
C589        O597   1.264       .  A
C590        O595   1.272       .  A
C590        O593   1.288       .  A
Cd591       O598   2.293       .  S
Cd591       O597   2.292       .  S
Cd591       O596   2.575       .  S
Cd591       O592   2.587       .  S
Cd591       O595   2.588       .  S
Cd591       O593   2.574       .  S
C594        O598   1.265       .  A
O599        C602   1.281       .  A
O599       Cd604   2.601       .  S
C600        O609   1.265       .  A
C600        O605   1.283       .  A
O601        C607   1.283       .  A
O601       Cd604   2.344       .  S
C602        O610   1.279       .  A
C603        O608   1.281       .  A
C603        O606   1.279       .  A
Cd604       O611   2.335       .  S
Cd604       O610   2.589       .  S
Cd604       O609   2.335       .  S
Cd604       O605   2.344       .  S
Cd604       O608   2.598       .  S
Cd604       O606   2.587       .  S
C607        O611   1.265       .  A
O612        C615   1.269       .  A
O612       Cd617   2.631   1_565  S
C613        O622   1.270       .  A
C613        O618   1.269       .  A
O614        C620   1.269       .  A
O614       Cd617   2.636       .  S
C615        O623   1.270       .  A
C616        O621   1.270       .  A
C616        O619   1.270       .  A
C616        C654   1.615       .  S
Cd617       O624   2.717       .  S
Cd617       O623   2.719   1_545  S
Cd617       O622   2.720   1_655  S
Cd617       O618   2.631   1_655  S
Cd617       O621   2.639   1_645  S
Cd617       O619   2.716   1_645  S
C620        O624   1.270       .  A
C620        C652   1.614       .  S
O625        C628   1.269       .  A
O625       Cd630   2.632       .  S
C626        O635   1.270       .  A
C626        O631   1.269       .  A
O627        C633   1.269       .  A
O627       Cd630   2.636       .  S
C628        O636   1.270       .  A
C629        O634   1.269       .  A
C629        O632   1.270       .  A
C629        C655   1.614       .  S
Cd630       O637   2.715       .  S
Cd630       O636   2.719       .  S
Cd630       O635   2.719       .  S
Cd630       O631   2.632       .  S
Cd630       O634   2.638       .  S
Cd630       O632   2.714       .  S
C633        O637   1.270       .  A
C633        C657   1.614       .  S
O638        C641   1.269       .  A
O638       Cd643   2.631   1_465  S
C639        O648   1.270       .  A
C639        O644   1.269       .  A
C639        C651   1.612       .  S
O640        C646   1.269       .  A
O640       Cd643   2.637   1_565  S
C641        O649   1.270       .  A
C641        C653   1.611       .  S
C642        O647   1.269       .  A
C642        O645   1.270       .  A
Cd643       O650   2.715   1_545  S
Cd643       O649   2.719   1_645  S
Cd643       O648   2.719       .  S
Cd643       O644   2.633       .  S
Cd643       O647   2.637   1_655  S
Cd643       O645   2.714   1_655  S
C646        O650   1.270       .  A
C651        C815   1.612       .  S
C651        C652   1.736       .  S
C652        C824   1.616       .  S
C653        C769   1.612       .  S
C653        C654   1.736       .  S
C654        C758   1.616       .  S
C655        C759   1.616       .  S
C656        C772   1.613       .  S
C657        C823   1.616       .  S
C658        C810   1.613       .  S
C659        C811   1.453       .  S
C659        C660   1.527       .  S
C659        C665   1.524       .  S
C659        C663   1.514       .  S
C660        H667   1.080       .  S
C660        C661   1.377       .  D
C661        C662   1.544       .  S
C662        C666   1.542       .  S
C662        C664   1.525       .  S
C662        H668   1.107       .  S
C663        H669   1.085       .  S
C663        C664   1.352       .  D
C664        C673   1.462       .  S
C665        H670   1.087       .  S
C665        C666   1.362       .  D
C666        C798   1.450       .  S
C671        C828   1.460       .  S
C671        C672   1.513       .  S
C671        C677   1.524       .  S
C671        C675   1.532       .  S
C672        H679   1.085       .  S
C672        C673   1.352       .  D
C673        C674   1.530       .  S
C674        C678   1.545       .  S
C674        C676   1.539       .  S
C674        H680   1.109       .  S
C675        H681   1.079       .  S
C675        C676   1.379       .  D
C677        H682   1.088       .  S
C677        C678   1.364       .  D
C678        C789   1.451       .  S
C683        C808   1.453       .  S
C683        C684   1.528       .  S
C683        C689   1.524       .  S
C683        C687   1.514       .  S
C684        H691   1.080       .  S
C684        C685   1.377   1_655  D
C685        C686   1.544       .  S
C686        C690   1.542   1_455  S
C686        H692   1.107       .  S
C688        C697   1.462       .  S
C689        H694   1.087       .  S
C689        C690   1.362       .  D
C690        C797   1.449   1_655  S
C695        C821   1.460       .  S
C695        C696   1.513       .  S
C695        C701   1.523       .  S
C695        C699   1.532       .  S
C696        H703   1.085       .  S
C696        C697   1.352       .  D
C697        C698   1.530   1_655  S
C698        C702   1.545   1_455  S
C698        C700   1.539       .  S
C698        H704   1.109       .  S
C699        H705   1.078       .  S
C699        C700   1.380   1_655  D
C701        H706   1.088       .  S
C701        C702   1.364       .  D
C702        C784   1.450   1_655  S
C707        C776   1.453       .  S
C707        C708   1.528       .  S
C707        C713   1.524       .  S
C707        C711   1.514       .  S
C708        H715   1.080       .  S
C708        C709   1.376   1_455  D
C709        C710   1.544       .  S
C710        C714   1.542       .  S
C710        H716   1.107       .  S
C712        C721   1.462       .  S
C713        H718   1.087       .  S
C713        C714   1.363   1_455  D
C714        C795   1.450       .  S
C719        C763   1.460       .  S
C719        C720   1.513       .  S
C719        C725   1.524       .  S
C719        C723   1.532       .  S
C720        H727   1.085       .  S
C720        C721   1.352       .  D
C721        C722   1.530   1_455  S
C722        C726   1.545   1_655  S
C722        C724   1.539       .  S
C722        H728   1.109       .  S
C723        H729   1.079       .  S
C723        C724   1.379   1_455  D
C725        H730   1.088       .  S
C725        C726   1.363       .  D
C726        C782   1.450   1_455  S
C731        C771   1.453       .  S
C731        C732   1.527       .  S
C731        C737   1.524       .  S
C731        C735   1.514       .  S
C732        H739   1.080       .  S
C732        C733   1.376       .  D
C733        C734   1.545       .  S
C734        C738   1.542       .  S
C734        C736   1.525       .  S
C734        H740   1.107       .  S
C735        H741   1.085       .  S
C735        C736   1.352       .  D
C736        C745   1.462       .  S
C737        H742   1.087       .  S
C737        C738   1.362       .  D
C738        C802   1.450       .  S
C743        C756   1.460       .  S
C743        C744   1.513       .  S
C743        C749   1.524       .  S
C743        C747   1.532       .  S
C744        H751   1.085       .  S
C744        C745   1.352       .  D
C745        C746   1.530       .  S
C746        C750   1.545       .  S
C746        C748   1.539       .  S
C746        H752   1.109       .  S
C747        H753   1.079       .  S
C747        C748   1.379       .  D
C749        H754   1.088       .  S
C749        C750   1.364       .  D
C750        C785   1.451       .  S
O755        C758   1.281       .  A
O755       Cd760   2.600       .  S
C756        O765   1.265       .  A
C756        O761   1.283       .  A
O757        C763   1.283       .  A
O757       Cd760   2.344       .  S
C758        O766   1.279       .  A
C759        O764   1.281       .  A
C759        O762   1.279       .  A
Cd760       O767   2.333       .  S
Cd760       O766   2.588       .  S
Cd760       O765   2.337       .  S
Cd760       O761   2.342       .  S
Cd760       O764   2.598       .  S
Cd760       O762   2.589       .  S
C763        O767   1.265       .  A
O768        C771   1.284       .  A
O768       Cd773   2.329       .  S
C769        O778   1.288       .  A
C769        O774   1.272       .  A
O770        C776   1.284       .  A
O770       Cd773   2.329       .  S
C771        O779   1.265       .  A
C772        O777   1.272       .  A
C772        O775   1.287       .  A
Cd773       O780   2.295       .  S
Cd773       O779   2.292       .  S
Cd773       O778   2.575       .  S
Cd773       O774   2.588       .  S
Cd773       O777   2.588       .  S
Cd773       O775   2.578       .  S
C776        O780   1.264       .  A
O781        C784   1.277       .  A
O781       Cd786   2.187   1_455  S
C782        O791   1.278   1_655  A
C782        O787   1.277       .  A
O783        C789   1.277       .  A
O783       Cd786   2.190       .  S
C784        O792   1.278   1_455  A
C785        O790   1.277       .  A
C785        O788   1.278       .  A
Cd786       O793   2.386       .  S
Cd786       O792   2.382       .  S
Cd786       O791   2.384   1_655  S
Cd786       O787   2.186       .  S
Cd786       O790   2.191   1_655  S
Cd786       O788   2.385   1_655  S
C789        O793   1.278       .  A
O794        C797   1.278       .  A
O794       Cd799   2.198   1_455  S
C795        O804   1.278   1_655  A
C795        O800   1.278       .  A
O796        C802   1.278       .  A
O796       Cd799   2.201   1_455  S
C797        O805   1.278   1_455  A
C798        O803   1.278       .  A
C798        O801   1.278       .  A
Cd799       O806   2.373   1_655  S
Cd799       O805   2.373       .  S
Cd799       O804   2.373   1_655  S
Cd799       O800   2.199       .  S
Cd799       O803   2.198       .  S
Cd799       O801   2.374       .  S
C802        O806   1.278       .  A
O807        C810   1.272       .  A
O807       Cd812   2.588       .  S
C808        O817   1.265       .  A
C808        O813   1.284       .  A
O809        C815   1.272       .  A
O809       Cd812   2.588       .  S
C810        O818   1.288       .  A
C811        O816   1.284       .  A
C811        O814   1.265       .  A
Cd812       O819   2.574       .  S
Cd812       O818   2.574       .  S
Cd812       O817   2.292       .  S
Cd812       O813   2.328       .  S
Cd812       O816   2.329       .  S
Cd812       O814   2.293       .  S
C815        O819   1.288       .  A
O820        C823   1.281       .  A
O820       Cd825   2.599       .  S
C821        O830   1.265       .  A
C821        O826   1.283       .  A
O822        C828   1.283       .  A
O822       Cd825   2.344       .  S
C823        O831   1.279       .  A
C824        O829   1.281       .  A
C824        O827   1.279       .  A
Cd825       O832   2.335       .  S
Cd825       O831   2.588       .  S
Cd825       O830   2.335       .  S
Cd825       O826   2.344       .  S
Cd825       O829   2.600       .  S
Cd825       O827   2.589       .  S
C828        O832   1.265       .  A
