geometry optimzed in LAMMPS
_audit_creation_date              2020-11-30 
_audit_creation_method            'lammps2cif' 
_symmetry_space_group_name_H-M    'P1' 
_symmetry_Int_Tables_number       1 
_symmetry_cell_setting            triclinic 
loop_ 
_symmetry_equiv_pos_as_xyz 
  x,y,z 
_cell_length_a                    36.26221974 
_cell_length_b                    38.96067767801866 
_cell_length_c                    38.28550398889189 
_cell_angle_alpha                 89.4010066380423 
_cell_angle_beta                  88.55870289714676 
_cell_angle_gamma                 88.76555169499777 
loop_ 
_atom_site_label 
_atom_site_type_symbol 
_atom_site_fract_x 
_atom_site_fract_y 
_atom_site_fract_z 
_atom_site_charge 
Zr1        Zr  0.80040980  0.79099401  0.78796235     2.17500
O2          O  0.86143762  0.81602241  0.79125988    -0.51500
O3          O  0.78064865  0.80903673  0.84580732    -0.74700
O4          O  0.80152353  0.85289575  0.77702038    -0.81500
O5          O  0.84708002  0.70676751  0.81299545    -0.83200
O6          O  0.75570911  0.86739339  0.73990403    -0.78800
O7          O  0.84911864  0.76473546  0.81993108    -0.90500
O8          O  0.73018067  0.77974272  0.86404022    -0.76400
O9          O  0.73608679  0.80297802  0.78974029    -0.85900
O10         O  0.77341233  0.74115114  0.81391674    -0.85600
O11         O  0.78665476  0.80040460  0.72779569    -0.72400
O12         O  0.81963592  0.74282312  0.75237415    -0.84500
Zr13       Zr  0.71117101  0.71668640  0.71831254     2.26400
Zr14       Zr  0.72168061  0.81346241  0.72989682     2.06300
Zr15       Zr  0.79126399  0.69304587  0.77838445     2.10000
Zr16       Zr  0.70878967  0.75212472  0.81355735     1.78800
O17         O  0.83588869  0.65501511  0.74892268    -0.93300
O18         O  0.65917980  0.79062889  0.83405907    -0.41100
O19         O  0.72626717  0.70500089  0.77773316    -0.77800
O20         O  0.69252972  0.76369117  0.75506136    -0.96400
O21         O  0.73879274  0.76576049  0.69263352    -0.89800
O22         O  0.77539357  0.70213703  0.71808549    -0.92600
C23         C  0.75590348  0.80077168  0.86868657     1.01200
C24         C  0.86162751  0.73433323  0.82503379     1.14100
C25         C  0.78395525  0.87491761  0.75822152     1.04900
O26         O  0.67946330  0.85307723  0.76026056    -0.94800
O27         O  0.66118154  0.80492752  0.70400085    -0.90500
O28         O  0.65758697  0.74717870  0.69687024    -0.83600
C29         C  0.64446656  0.77781064  0.69457903     1.11500
O30         O  0.86151384  0.78076173  0.68582126    -0.96700
Zr31       Zr  0.80299279  0.75162410  0.69243330     1.88900
O32         O  0.72609813  0.70108476  0.65851799    -0.73400
O33         O  0.72217425  0.84367094  0.67386841    -0.52600
O34         O  0.80088030  0.79163543  0.64319764    -0.97300
O35         O  0.85531749  0.71395559  0.67705458    -0.54500
O36         O  0.78205191  0.72001291  0.64220762    -0.73900
C37         C  0.75243536  0.70391428  0.63597983     0.98500
O38         O  0.65619594  0.68206825  0.71257202    -0.62700
O39         O  0.79165672  0.65689159  0.83078783    -0.57500
O40         O  0.70675142  0.65738720  0.73457251    -0.94200
O41         O  0.75110685  0.64160148  0.77265958    -0.92600
O42         O  0.70723798  0.70553233  0.85645008    -0.93000
O43         O  0.64787826  0.72691599  0.81515543    -0.91800
C44         C  0.72189402  0.63538573  0.75497288     1.17300
H45         H  0.78164518  0.73747678  0.83747812     0.33200
H46         H  0.66612258  0.76682204  0.75661779     0.44100
H47         H  0.78078738  0.68177293  0.70454739     0.37600
H48         H  0.80004077  0.81955950  0.71818129     0.34100
H49         H  0.65565720  0.78496271  0.85918328     0.25900
H50         H  0.71115080  0.82762339  0.65737608     0.31800
H51         H  0.77505729  0.79135256  0.63539793     0.37700
H52         H  0.72915498  0.70870692  0.87087264     0.32200
H53         H  0.81226757  0.64021036  0.82674042     0.31100
H54         H  0.85472010  0.64986075  0.76661579     0.32800
H55         H  0.84437958  0.69302290  0.66763098     0.31700
H56         H  0.64982283  0.70789084  0.79820600     0.35700
H57         H  0.63703332  0.69242358  0.72831366     0.28400
H58         H  0.85901298  0.83524817  0.80795852     0.32700
H59         H  0.86765831  0.78736517  0.70985893     0.35500
H60         H  0.79999638  0.67171894  0.84976520     0.28100
H61         H  0.64694408  0.68567516  0.68870713     0.41000
H62         H  0.65954678  0.83840609  0.76975727     0.31100
H63         H  0.67009809  0.81370834  0.83372671     0.38700
H64         H  0.86546450  0.70652174  0.69974510     0.30500
H65         H  0.70346349  0.86236821  0.67678775     0.30600
H66         H  0.86655985  0.82688001  0.76821792     0.30900
C67         C  0.86863708  0.00756706  0.75892491    -0.02600
Zr68       Zr  0.80312771  0.22378697  0.71354388     2.17500
O69         O  0.86483175  0.19767258  0.71152402    -0.51500
O70         O  0.79268147  0.20480117  0.65446295    -0.74700
O71         O  0.80256579  0.16254588  0.72370437    -0.81500
O72         O  0.85110817  0.31015803  0.69850154    -0.83200
O73         O  0.75485894  0.14784654  0.75990386    -0.78800
O74         O  0.85574452  0.25269665  0.68862006    -0.90500
O75         O  0.73436215  0.22235225  0.64201251    -0.76400
O76         O  0.73922970  0.21195231  0.71099731    -0.85900
O77         O  0.77659335  0.27390458  0.68775358    -0.85600
O78         O  0.78379022  0.21319522  0.77312713    -0.72400
O79         O  0.81806628  0.27016804  0.75099011    -0.84500
Zr80       Zr  0.70535131  0.29903054  0.78420303     2.26400
Zr81       Zr  0.71872344  0.20220150  0.77034275     2.06300
Zr82       Zr  0.78967035  0.32050905  0.72573994     2.10000
Zr83       Zr  0.71266752  0.26264586  0.68645829     1.78800
O84         O  0.82903058  0.36143434  0.75367614    -0.93300
O85         O  0.65686086  0.23087098  0.67632108    -0.41100
O86         O  0.72508347  0.30916207  0.72458501    -0.77800
O87         O  0.69074988  0.25307462  0.74510794    -0.96400
O88         O  0.73250678  0.24855892  0.80887682    -0.89800
O89         O  0.76941264  0.31130548  0.78558075    -0.92600
C90         C  0.76439050  0.20547649  0.63509599     1.01200
C91         C  0.86815191  0.28318556  0.68667035     1.14100
C92         C  0.78464902  0.14039077  0.74193463     1.04900
O93         O  0.67939225  0.16185982  0.74154215    -0.94800
O94         O  0.65568703  0.21321521  0.79575921    -0.90500
O95         O  0.64783079  0.27108170  0.79959069    -0.83600
C96         C  0.63591625  0.24047530  0.80296767     1.11500
O97         O  0.85320922  0.22760969  0.82046222    -0.96700
Zr98       Zr  0.79667483  0.26053149  0.80988624     1.88900
O99         O  0.71685801  0.31267690  0.84552024    -0.73400
O100        O  0.71698635  0.17037825  0.82540736    -0.52600
O101        O  0.79241877  0.22288520  0.86096175    -0.97300
O102        O  0.84704586  0.29895961  0.82142466    -0.54500
O103        O  0.77346131  0.29234023  0.85968802    -0.73900
C104        C  0.74321230  0.30841876  0.86706327     0.98500
O105        O  0.65628191  0.33897116  0.80442788    -0.62700
O106        O  0.79213308  0.35202171  0.67037005    -0.57500
O107        O  0.70013366  0.35631662  0.75930329    -0.94200
O108        O  0.75099667  0.37309555  0.72910461    -0.92600
O109        O  0.72179286  0.29779535  0.63406677    -0.93000
O110        O  0.65946628  0.29913465  0.67297987    -0.91800
C111        C  0.71832234  0.37892922  0.74190251     1.17300
H112        H  0.78674187  0.27753566  0.66447682     0.33200
H113        H  0.66459055  0.25063873  0.74251667     0.44100
H114        H  0.77373057  0.33132424  0.79946314     0.37600
H115        H  0.79692719  0.19359477  0.78269874     0.34100
H116        H  0.65899160  0.22372050  0.65161308     0.25900
H117        H  0.70609912  0.18671577  0.84262605     0.31800
H118        H  0.76572480  0.21878062  0.86448877     0.37700
H119        H  0.71294000  0.28369220  0.61473848     0.32200
H120        H  0.81161710  0.36910701  0.67325194     0.31100
H121        H  0.84121385  0.37392277  0.73405765     0.32800
H122        H  0.83492375  0.32055705  0.82953860     0.31700
H123        H  0.64756372  0.30405765  0.69600379     0.35700
H124        H  0.64230909  0.32738227  0.82348739     0.28400
H125        H  0.86389419  0.17783855  0.69562955     0.32700
H126        H  0.86127534  0.21905265  0.79717936     0.35500
H127        H  0.80274522  0.33574026  0.65297015     0.28100
H128        H  0.66881358  0.35756265  0.81667143     0.41000
H129        H  0.66396354  0.15184547  0.76059068     0.31100
H130        H  0.65990529  0.20932947  0.68998249     0.38700
H131        H  0.85767227  0.30480889  0.79809687     0.30500
H132        H  0.69768291  0.15313002  0.82243631     0.30600
H133        H  0.86857408  0.18776048  0.73510511     0.30900
C134        C  0.63022981  0.50952513  0.73939907    -0.02600
C135        C  0.74048198  0.63807593  0.49567059    -0.02600
Zr136      Zr  0.69870341  0.79727925  0.20816572     2.17500
O137        O  0.64314285  0.82968554  0.19249195    -0.51500
O138        O  0.72143473  0.81053310  0.15003710    -0.74700
O139        O  0.69950348  0.85901304  0.21975852    -0.81500
O140        O  0.64416857  0.71484579  0.19468189    -0.83200
O141        O  0.74357386  0.86904881  0.25932450    -0.78800
O142        O  0.64306339  0.77282851  0.18607215    -0.90500
O143        O  0.77023189  0.77566598  0.13667678    -0.76400
O144        O  0.76363306  0.80391073  0.21209853    -0.85900
O145        O  0.72484737  0.74457140  0.18631602    -0.85600
O146        O  0.70840320  0.80732744  0.26885349    -0.72400
O147        O  0.67465666  0.75107202  0.24310974    -0.84500
Zr148      Zr  0.77526166  0.71608797  0.28915920     2.26400
Zr149      Zr  0.77416909  0.81282948  0.27326271     2.06300
Zr150      Zr  0.70322917  0.69812248  0.22262607     2.10000
Zr151      Zr  0.78947226  0.75068087  0.19136485     1.78800
O152        O  0.65726377  0.65714276  0.24250291    -0.93300
O153        O  0.83997241  0.78800927  0.17374700    -0.41100
O154        O  0.76838857  0.70458089  0.22830123    -0.77800
O155        O  0.80095806  0.75996912  0.25171134    -0.96400
O156        O  0.74859768  0.76858513  0.31010604    -0.89800
O157        O  0.71082741  0.70847599  0.28361545    -0.92600
C158        C  0.74546341  0.79793899  0.12847496     1.01200
C159        C  0.62838709  0.74324333  0.18429196     1.14100
C160        C  0.71669563  0.87913799  0.23976798     1.04900
O161        O  0.82297923  0.85005131  0.25172087    -0.94800
O162        O  0.83117682  0.79564087  0.30548034    -0.90500
O163        O  0.82924882  0.73816499  0.31535360    -0.83600
C164        C  0.84526915  0.76686898  0.31711160     1.11500
O165        O  0.62692505  0.79583720  0.29964071    -0.96700
Zr166      Zr  0.68386637  0.76167637  0.30324658     1.88900
O167        O  0.74477806  0.69893326  0.34357131    -0.73400
O168        O  0.76753905  0.84457134  0.32760181    -0.52600
O169        O  0.66808164  0.80239626  0.34940667    -0.97300
O170        O  0.63451340  0.72108365  0.31354443    -0.54500
O171        O  0.70065232  0.73835445  0.35860074    -0.73900
C172        C  0.72134798  0.71246577  0.36515495     0.98500
O173        O  0.82382540  0.68837480  0.32288733    -0.62700
O174        O  0.71002985  0.67201683  0.16518715    -0.57500
O175        O  0.78522110  0.65733246  0.26986275    -0.94200
O176        O  0.73764241  0.64241245  0.23639471    -0.92600
O177        O  0.79338282  0.70292562  0.15071767    -0.93000
O178        O  0.85141842  0.72521460  0.18923914    -0.91800
C179        C  0.76721544  0.63470995  0.25371492     1.17300
H180        H  0.71775834  0.74080095  0.16254503     0.33200
H181        H  0.82748182  0.76001630  0.25274040     0.44100
H182        H  0.70177681  0.68900129  0.29668621     0.37600
H183        H  0.69536561  0.82760842  0.27711045     0.34100
H184        H  0.83304687  0.79842765  0.15108532     0.25900
H185        H  0.77880582  0.86703335  0.32234966     0.31800
H186        H  0.69206841  0.80921545  0.35865054     0.37700
H187        H  0.77382090  0.70766582  0.13363246     0.32200
H188        H  0.72783809  0.65266777  0.16824261     0.31100
H189        H  0.66447284  0.63539304  0.23077995     0.32800
H190        H  0.61726102  0.72539308  0.29426427     0.31700
H191        H  0.84856214  0.70180062  0.19909978     0.35700
H192        H  0.83550612  0.67068070  0.30767154     0.28400
H193        H  0.65104804  0.84812717  0.17620437     0.32700
H194        H  0.63080414  0.81151976  0.27943447     0.35500
H195        H  0.68614522  0.66096569  0.16143683     0.28100
H196        H  0.81123797  0.67568079  0.34208851     0.41000
H197        H  0.81488781  0.85793009  0.22841224     0.31100
H198        H  0.83841109  0.80726442  0.19040175     0.38700
H199        H  0.62112403  0.72966586  0.33466973     0.30500
H200        H  0.74076215  0.84987535  0.32998039     0.30600
H201        H  0.63431953  0.84159074  0.21396034     0.30900
C202        C  0.75559243  0.87933448  0.99848547    -0.02600
C203        C  0.48794916  0.75055871  0.10404669    -0.02600
C204        C  0.35002747  0.99942234  0.75820136    -0.02600
C205        C  0.73923011  0.36337557  0.01212536    -0.02600
C206        C  0.24352830  0.63313971  0.98763290    -0.02600
C207        C  0.14657318  0.50657366  0.74792189    -0.02600
C208        C  0.74225886  0.14566818  0.49885084    -0.02600
C209        C  0.98760623  0.75472835  0.39440476    -0.02600
Zr210      Zr  0.27963618  0.71185007  0.20539396     2.17500
O211        O  0.33100752  0.68085940  0.17632397    -0.51500
O212        O  0.26619196  0.70346908  0.14365327    -0.74700
O213        O  0.28258693  0.65146678  0.21970443    -0.81500
O214        O  0.32961076  0.79291853  0.19008856    -0.83200
O215        O  0.23856304  0.63645258  0.25981775    -0.78800
O216        O  0.34007551  0.73658248  0.20244012    -0.90500
O217        O  0.20768852  0.72029749  0.13345240    -0.76400
O218        O  0.21541734  0.70049212  0.20725317    -0.85900
O219        O  0.25271819  0.76301970  0.18178712    -0.85600
O220        O  0.26494571  0.70087459  0.26637765    -0.72400
O221        O  0.29752560  0.75738723  0.24285495    -0.84500
Zr222      Zr  0.18863951  0.78763782  0.28119989     2.26400
Zr223      Zr  0.19980505  0.68996110  0.26794072     2.06300
Zr224      Zr  0.26989653  0.80861811  0.21951371     2.10000
Zr225      Zr  0.18830452  0.75240206  0.18478500     1.78800
O226        O  0.31626600  0.84739926  0.24006532    -0.93300
O227        O  0.13519367  0.71899203  0.16942136    -0.41100
O228        O  0.20490590  0.79883961  0.22121532    -0.77800
O229        O  0.17128690  0.74134015  0.24433403    -0.96400
O230        O  0.21596041  0.73661493  0.30516037    -0.89800
O231        O  0.25289601  0.79877660  0.27969734    -0.92600
C232        C  0.23841505  0.70644418  0.12352416     1.01200
C233        C  0.35033994  0.76547672  0.19001512     1.14100
C234        C  0.26786376  0.62977301  0.24079678     1.04900
O235        O  0.15817103  0.65217477  0.23853335    -0.94800
O236        O  0.13928720  0.70199616  0.29813569    -0.90500
O237        O  0.13655518  0.75942413  0.30794506    -0.83600
C238        C  0.12266667  0.72950158  0.30973532     1.11500
O239        O  0.33945487  0.71782295  0.30836103    -0.96700
Zr240      Zr  0.28016830  0.74771893  0.30279192     1.88900
O241        O  0.20094508  0.80314184  0.34127445    -0.73400
O242        O  0.19467202  0.65650300  0.32196421    -0.52600
O243        O  0.27927944  0.70784757  0.35221710    -0.97300
O244        O  0.33199477  0.78449723  0.31402782    -0.54500
O245        O  0.25782260  0.78084034  0.35249654    -0.73900
C246        C  0.22887285  0.79870550  0.36087024     0.98500
O247        O  0.13147847  0.82162208  0.27787832    -0.62700
O248        O  0.26531196  0.84103243  0.16499843    -0.57500
O249        O  0.18921813  0.84932818  0.27175390    -0.94200
O250        O  0.23732177  0.86317245  0.23554375    -0.92600
O251        O  0.19103816  0.79591379  0.13876214    -0.93000
O252        O  0.12915330  0.78331635  0.18580324    -0.91800
C253        C  0.20874854  0.87136740  0.25488560     1.17300
H254        H  0.26135528  0.76756337  0.15813103     0.33200
H255        H  0.14480059  0.73933942  0.24448966     0.44100
H256        H  0.25830112  0.81860464  0.29346312     0.37600
H257        H  0.27947424  0.68216713  0.27583977     0.34100
H258        H  0.12912624  0.72664035  0.14547588     0.25900
H259        H  0.17871406  0.63713009  0.31625562     0.31800
H260        H  0.28094167  0.68473330  0.34171877     0.37700
H261        H  0.16799847  0.79334425  0.12580712     0.32200
H262        H  0.23847463  0.84453894  0.16185786     0.31100
H263        H  0.33546304  0.83217008  0.25025868     0.32800
H264        H  0.33547005  0.78262581  0.33955027     0.31700
H265        H  0.13418551  0.80557705  0.19677334     0.35700
H266        H  0.11501955  0.80812783  0.26331908     0.28400
H267        H  0.32010737  0.66177229  0.16348231     0.32700
H268        H  0.34481311  0.70808440  0.28494737     0.35500
H269        H  0.27427532  0.86412981  0.17054759     0.28100
H270        H  0.11994043  0.82145891  0.30159811     0.41000
H271        H  0.14369613  0.64113069  0.25765933     0.31100
H272        H  0.14493684  0.69521367  0.16669302     0.38700
H273        H  0.32242220  0.80820834  0.31041103     0.30500
H274        H  0.21937741  0.64582889  0.32524154     0.30600
H275        H  0.34533659  0.66952804  0.19505817     0.30900
C276        C  0.24887258  0.87998497  0.48855881    -0.02600
C277        C  0.85886702  0.50325044  0.25854797    -0.02600
Zr278      Zr  0.79729149  0.29206923  0.21346549     2.17500
O279        O  0.80839085  0.34169405  0.17508837    -0.51500
O280        O  0.85846917  0.27968437  0.18990098    -0.74700
O281        O  0.81224995  0.34577019  0.24165770    -0.81500
O282        O  0.74348129  0.24272764  0.14186215    -0.83200
O283        O  0.80480388  0.34218060  0.30075782    -0.78800
O284        O  0.77406537  0.29114680  0.15479106    -0.90500
O285        O  0.87730515  0.22890982  0.21251007    -0.76400
O286        O  0.82445370  0.27151277  0.26600922    -0.85900
O287        O  0.80332779  0.23156983  0.20448231    -0.85600
O288        O  0.75484134  0.30774484  0.26015116    -0.72400
O289        O  0.73721321  0.27082735  0.20322042    -0.84500
Zr290      Zr  0.72848022  0.20489491  0.29501774     2.26400
Zr291      Zr  0.78101181  0.28484868  0.31333615     2.06300
Zr292      Zr  0.74279407  0.20952076  0.19690353     2.10000
Zr293      Zr  0.83119713  0.21138122  0.25658701     1.78800
O294        O  0.69023611  0.19876876  0.16048838    -0.93300
O295        O  0.88450304  0.22718694  0.28996481    -0.41100
O296        O  0.77088049  0.18827804  0.24897202    -0.77800
O297        O  0.78952870  0.22436742  0.30499565    -0.96400
O298        O  0.72090869  0.26486920  0.30221088    -0.89800
O299        O  0.70065544  0.22540923  0.24313560    -0.92600
C300        C  0.88144656  0.25449818  0.19127261     1.01200
C301        C  0.75572629  0.27272223  0.13410209     1.14100
C302        C  0.81289533  0.35857026  0.27235170     1.04900
O303        O  0.83822605  0.27989810  0.34519125    -0.94800
O304        O  0.75762199  0.26056490  0.37060391    -0.90500
O305        O  0.72864658  0.21175058  0.35681286    -0.83600
C306        C  0.73901165  0.23350290  0.37905890     1.11500
O307        O  0.68375896  0.33931704  0.21696405    -0.96700
Zr308      Zr  0.69576258  0.28616371  0.24912662     1.88900
O309        O  0.66509888  0.21931107  0.31271041    -0.73400
O310        O  0.75303732  0.32764050  0.35236484    -0.52600
O311        O  0.67322378  0.33480786  0.28364342    -0.97300
O312        O  0.64941139  0.27607904  0.20550902    -0.54500
O313        O  0.64580698  0.26731233  0.28404710    -0.73900
C314        C  0.64108516  0.24297762  0.30587607     0.98500
O315        O  0.74013672  0.15424746  0.33152809    -0.62700
O316        O  0.78206526  0.17048952  0.16249623    -0.57500
O317        O  0.70235749  0.15394550  0.27196548    -0.94200
O318        O  0.71335209  0.15436760  0.21320162    -0.92600
O319        O  0.85069196  0.15790862  0.22864351    -0.93000
O320        O  0.84709236  0.16285892  0.29435963    -0.91800
C321        C  0.70102419  0.14032571  0.24182187     1.17300
H322        H  0.81757681  0.22611275  0.18358611     0.33200
H323        H  0.79890785  0.21386170  0.32603778     0.44100
H324        H  0.67689651  0.21541871  0.24012772     0.37600
H325        H  0.75044262  0.33224974  0.26155728     0.34100
H326        H  0.90377398  0.20975667  0.28377304     0.25900
H327        H  0.77393077  0.33831218  0.36402123     0.31800
H328        H  0.67691490  0.32767060  0.30822807     0.37700
H329        H  0.84417855  0.16108345  0.20385108     0.32200
H330        H  0.77225935  0.14740785  0.16756871     0.31100
H331        H  0.69913899  0.18079191  0.14404391     0.32800
H332        H  0.62817170  0.26618137  0.21850969     0.31700
H333        H  0.82305140  0.15404311  0.30288452     0.35700
H334        H  0.71589621  0.14363490  0.33605130     0.28400
H335        H  0.83360625  0.34941755  0.17975720     0.32700
H336        H  0.65660798  0.34128788  0.21511554     0.35500
H337        H  0.77544440  0.17529625  0.13797329     0.28100
H338        H  0.75403356  0.13781542  0.31636697     0.41000
H339        H  0.84030371  0.30227305  0.35692427     0.31100
H340        H  0.89338948  0.24865320  0.27887012     0.38700
H341        H  0.65964805  0.25690980  0.19125706     0.30500
H342        H  0.74294390  0.34585413  0.33685723     0.30600
H343        H  0.79191807  0.36069936  0.18329259     0.30900
C344        C  0.62333169  0.00791658  0.25593429    -0.02600
C345        C  0.49604705  0.24652166  0.88862743    -0.02600
Zr346      Zr  0.20448418  0.29052079  0.71285908     2.17500
O347        O  0.15640392  0.32355245  0.68330570    -0.51500
O348        O  0.23217101  0.30110086  0.65624740    -0.74700
O349        O  0.20720741  0.35133642  0.72659833    -0.81500
O350        O  0.14125713  0.21454697  0.70205111    -0.83200
O351        O  0.25546128  0.36109635  0.76163708    -0.78800
O352        O  0.14564265  0.27206970  0.69296823    -0.90500
O353        O  0.27795046  0.26270863  0.64254900    -0.76400
O354        O  0.26998317  0.29175795  0.71508401    -0.85900
O355        O  0.22483242  0.23495137  0.69355357    -0.85600
O356        O  0.21577720  0.30250775  0.77287591    -0.72400
O357        O  0.17475929  0.24943490  0.75020800    -0.84500
Zr358      Zr  0.27584926  0.20871340  0.79642323     2.26400
Zr359      Zr  0.28213253  0.30337055  0.77542150     2.06300
Zr360      Zr  0.19755463  0.19369892  0.73296167     2.10000
Zr361      Zr  0.29028942  0.23552370  0.69742767     1.78800
O362        O  0.15183992  0.16084276  0.76597873    -0.93300
O363        O  0.34781503  0.26473512  0.68396204    -0.41100
O364        O  0.26326549  0.19542457  0.73705539    -0.77800
O365        O  0.30474457  0.24796055  0.75606516    -0.96400
O366        O  0.25314571  0.26330935  0.81495284    -0.89800
O367        O  0.21040127  0.20523982  0.79304808    -0.92600
C368        C  0.25626938  0.28777578  0.63536061     1.01200
C369        C  0.12840310  0.24391083  0.69084008     1.14100
C370        C  0.22745584  0.37151413  0.74379937     1.04900
O371        O  0.33092622  0.33820657  0.74974120    -0.94800
O372        O  0.33961104  0.28494247  0.80507531    -0.90500
O373        O  0.33582786  0.22741051  0.81473139    -0.83600
C374        C  0.35291902  0.25578275  0.81598499     1.11500
O375        O  0.13175800  0.29639102  0.80571968    -0.96700
Zr376      Zr  0.18760473  0.26071664  0.80943286     1.88900
O377        O  0.25499792  0.20742075  0.85657317    -0.73400
O378        O  0.28335665  0.33438453  0.83028932    -0.52600
O379        O  0.17905531  0.30577233  0.85270503    -0.97300
O380        O  0.13595878  0.22328786  0.82232502    -0.54500
O381        O  0.20159427  0.23788861  0.86515306    -0.73900
C382        C  0.22833964  0.21923612  0.87557670     0.98500
O383        O  0.31411912  0.16303081  0.82209066    -0.62700
O384        O  0.19048507  0.15668465  0.68271170    -0.57500
O385        O  0.27254288  0.14857679  0.78394120    -0.94200
O386        O  0.23233821  0.13823497  0.74106448    -0.92600
O387        O  0.29004789  0.18965993  0.65470038    -0.93000
O388        O  0.34386212  0.19679953  0.69946076    -0.91800
C389        C  0.25836704  0.12865580  0.76182636     1.17300
H390        H  0.21734566  0.23088664  0.66989504     0.33200
H391        H  0.33198578  0.24622675  0.75538310     0.44100
H392        H  0.20108426  0.18748938  0.80852199     0.37600
H393        H  0.20445622  0.32344608  0.78153766     0.34100
H394        H  0.34465734  0.27543337  0.66064044     0.25900
H395        H  0.25786157  0.34354128  0.83376584     0.31800
H396        H  0.20385290  0.30883812  0.86230546     0.37700
H397        H  0.26592327  0.17861724  0.65849872     0.32200
H398        H  0.17131055  0.14027625  0.69024498     0.31100
H399        H  0.12772987  0.16998303  0.75810493     0.32800
H400        H  0.11868286  0.22750078  0.80304386     0.31700
H401        H  0.33800674  0.18034385  0.71859294     0.35700
H402        H  0.33845003  0.16363805  0.80975704     0.28400
H403        H  0.16903079  0.33529423  0.66350090     0.32700
H404        H  0.13785736  0.31465075  0.78847983     0.35500
H405        H  0.17863767  0.17119508  0.66462899     0.28100
H406        H  0.31887918  0.17023524  0.84626561     0.41000
H407        H  0.33420183  0.35672516  0.76684323     0.31100
H408        H  0.34783404  0.28431759  0.70022606     0.38700
H409        H  0.12336044  0.23346424  0.84312043     0.30500
H410        H  0.28599312  0.31637199  0.84855172     0.30600
H411        H  0.14796165  0.34205950  0.69932232     0.30900
C412        C  0.99900626  0.25809742  0.59702512    -0.02600
C413        C  0.01108519  0.24480247  0.09057801    -0.02600
Zr414      Zr  0.04606256  0.04194221  0.04572391     2.17500
O415        O  0.04213444  0.08284252  0.09369406    -0.51500
O416        O  0.10901090  0.05809470  0.03676349    -0.74700
O417        O  0.06702311  0.01826765  0.10059579    -0.81500
O418        O  0.00280083  0.11009426  0.98281416    -0.83200
O419        O  0.06355455  0.96036895  0.10385624    -0.78800
O420        O  0.02905044  0.10186282  0.03583900    -0.90500
O421        O  0.13389622  0.02609165  0.99310283    -0.76400
O422        O  0.07587074  0.98871711  0.03076474    -0.85900
O423        O  0.05590146  0.04567811  0.98403658    -0.85600
O424        O  0.00565332  0.99768759  0.06597985    -0.72400
O425        O  0.98690799  0.05200886  0.02149445    -0.84500
Zr426      Zr  0.98377860  0.95923197  0.96345288     2.26400
Zr427      Zr  0.03442830  0.94362702  0.04815504     2.06300
Zr428      Zr  0.99590790  0.05342385  0.95883772     2.10000
Zr429      Zr  0.08518868  0.99235512  0.96924194     1.78800
O430        O  0.94039959  0.08864076  0.95109845    -0.93300
O431        O  0.13343214  0.94984034  0.98221621    -0.41100
O432        O  0.02613304  0.00100721  0.94290250    -0.77800
O433        O  0.04392532  0.94764040  0.98605787    -0.96400
O434        O  0.97506408  0.95511213  0.02504948    -0.89800
O435        O  0.95394476  0.01144850  0.97926441    -0.92600
C436        C  0.13604428  0.04897206  0.01667065     1.01200
C437        C  0.01441014  0.12077365  0.01201399     1.14100
C438        C  0.07208514  0.98965935  0.11687011     1.04900
O439        O  0.08926077  0.90682493  0.05315780    -0.94800
O440        O  0.01853843  0.88855559  0.01704170    -0.90500
O441        O  0.97004342  0.90346678  0.98426977    -0.83600
C442        C  0.99311273  0.88116203  0.99502686     1.11500
O443        O  0.93470636  0.04270971  0.09327923    -0.96700
Zr444      Zr  0.94678781  0.00825498  0.04136869     1.88900
O445        O  0.92071303  0.94414005  0.97394373    -0.73400
O446        O  0.00262677  0.91203782  0.09460837    -0.52600
O447        O  0.92056051  0.97871409  0.09221471    -0.97300
O448        O  0.89727992  0.04972580  0.02956254    -0.54500
O449        O  0.89982296  0.97142665  0.02252706    -0.73900
C450        C  0.89610071  0.95039716  0.99762640     0.98500
O451        O  0.00877810  0.92461049  0.91552659    -0.62700
O452        O  0.03024971  0.08383106  0.91303273    -0.57500
O453        O  0.95595240  0.97692019  0.90946859    -0.94200
O454        O  0.96548896  0.03398481  0.90482911    -0.92600
O455        O  0.10895938  0.02293192  0.91796974    -0.93000
O456        O  0.10317333  0.95801438  0.91851365    -0.91800
C457        C  0.95317265  0.00544785  0.89285286     1.17300
H458        H  0.07135786  0.06480144  0.97787198     0.33200
H459        H  0.05400030  0.92628674  0.97712706     0.44100
H460        H  0.93038968  0.01428743  0.96823415     0.37600
H461        H  0.00228477  0.99823223  0.09106929     0.34100
H462        H  0.13881458  0.95325171  0.00714801     0.25900
H463        H  0.97868560  0.90611526  0.08464236     0.31800
H464        H  0.93753445  0.95891045  0.09620151     0.37700
H465        H  0.09862068  0.04654785  0.92001663     0.32200
H466        H  0.01390930  0.10345840  0.90661070     0.31100
H467        H  0.94402174  0.10005657  0.92808888     0.32800
H468        H  0.88183811  0.03860671  0.01216610     0.31700
H469        H  0.09080975  0.93581267  0.92209931     0.35700
H470        H  0.02453429  0.94059740  0.90191652     0.28400
H471        H  0.06732146  0.08401602  0.10297258     0.32700
H472        H  0.95631054  0.05768819  0.09465487     0.35500
H473        H  0.05092223  0.09448958  0.92502998     0.28100
H474        H  0.02665145  0.90839282  0.92625217     0.41000
H475        H  0.08888570  0.89138196  0.03280207     0.31100
H476        H  0.12127409  0.92734794  0.98176462     0.38700
H477        H  0.90942179  0.06853065  0.01641026     0.30500
H478        H  0.01641113  0.88987708  0.09610925     0.30600
H479        H  0.02712259  0.07185134  0.11247594     0.30900
Zr480      Zr  0.21625238  0.21881298  0.21266492     2.17500
O481        O  0.22573445  0.16841641  0.17575574    -0.51500
O482        O  0.15389064  0.22382673  0.19321280    -0.74700
O483        O  0.19655803  0.16561397  0.24017835    -0.81500
O484        O  0.26284354  0.27333129  0.13845469    -0.83200
O485        O  0.19875913  0.17093976  0.29925115    -0.78800
O486        O  0.23309091  0.22372730  0.15199840    -0.90500
O487        O  0.13169356  0.27533692  0.21132787    -0.76400
O488        O  0.18345689  0.23966423  0.26293639    -0.85900
O489        O  0.20769193  0.27881867  0.20113691    -0.85600
O490        O  0.25554650  0.20491326  0.26019880    -0.72400
O491        O  0.27538985  0.24300416  0.20151023    -0.84500
Zr492      Zr  0.27515168  0.31021312  0.29051390     2.26400
Zr493      Zr  0.22358184  0.22816400  0.31093674     2.06300
Zr494      Zr  0.26739157  0.30382082  0.19324287     2.10000
Zr495      Zr  0.17519254  0.29941651  0.25139933     1.78800
O496        O  0.32634239  0.30551003  0.16148100    -0.93300
O497        O  0.12183089  0.28716566  0.28909562    -0.41100
O498        O  0.23481093  0.32472245  0.24380832    -0.77800
O499        O  0.21413372  0.28841679  0.30006179    -0.96400
O500        O  0.28384940  0.25036392  0.30025383    -0.89800
O501        O  0.30717621  0.28983852  0.23994332    -0.92600
C502        C  0.12914199  0.24768393  0.19377699     1.01200
C503        C  0.24928243  0.24427970  0.13068509     1.14100
C504        C  0.19235812  0.15388696  0.27138811     1.04900
O505        O  0.16629225  0.22641856  0.34537428    -0.94800
O506        O  0.23390931  0.25829930  0.36674212    -0.90500
O507        O  0.26182467  0.30818579  0.35177875    -0.83600
C508        C  0.24837225  0.28729134  0.37428567     1.11500
O509        O  0.32747099  0.18515092  0.20518586    -0.96700
Zr510      Zr  0.31414938  0.22943603  0.24841036     1.88900
O511        O  0.33683154  0.29706818  0.31231183    -0.73400
O512        O  0.25580623  0.18829414  0.34963653    -0.52600
O513        O  0.33541911  0.17684106  0.27713852    -0.97300
O514        O  0.37080377  0.24571602  0.21746103    -0.54500
O515        O  0.35713569  0.24606422  0.28975872    -0.73900
C516        C  0.35990858  0.27162762  0.30975241     0.98500
O517        O  0.26641427  0.36655477  0.31726405    -0.62700
O518        O  0.23465506  0.34358307  0.15484773    -0.57500
O519        O  0.30213690  0.36101997  0.26547064    -0.94200
O520        O  0.29240980  0.36083672  0.20724601    -0.92600
O521        O  0.15254379  0.34719120  0.21575655    -0.93000
O522        O  0.15820778  0.35103107  0.28405366    -0.91800
C523        C  0.30371807  0.37526428  0.23519671     1.17300
H524        H  0.19386889  0.28279617  0.18018059     0.33200
H525        H  0.20230956  0.29896882  0.32018228     0.44100
H526        H  0.33075172  0.30069496  0.23687000     0.37600
H527        H  0.25954802  0.18043237  0.26260815     0.34100
H528        H  0.11471391  0.26366413  0.28285893     0.25900
H529        H  0.23739951  0.18283530  0.36830500     0.31800
H530        H  0.36268762  0.17785969  0.27598607     0.37700
H531        H  0.15089849  0.33793509  0.19187121     0.32200
H532        H  0.22324312  0.36090482  0.17073355     0.31100
H533        H  0.32526200  0.32706350  0.14761994     0.32800
H534        H  0.36501207  0.24468911  0.19236630     0.31700
H535        H  0.15780465  0.34405267  0.30899432     0.35700
H536        H  0.24172123  0.36650178  0.32893343     0.28400
H537        H  0.20098943  0.15873063  0.17278522     0.32700
H538        H  0.30708449  0.16879791  0.20821106     0.35500
H539        H  0.25434206  0.35600185  0.14194108     0.28100
H540        H  0.28422599  0.36755591  0.33640313     0.41000
H541        H  0.14712053  0.22149037  0.32828196     0.31100
H542        H  0.13185308  0.28463011  0.31281516     0.38700
H543        H  0.38830609  0.22627057  0.22132398     0.30500
H544        H  0.25900762  0.16678538  0.33625057     0.30600
H545        H  0.23947797  0.15114744  0.18977763     0.30900
C546        C  0.13765225  0.01186260  0.25842684    -0.02600
Zr547      Zr  0.94382867  0.04106250  0.53655201     2.17500
O548        O  0.89566950  0.06591816  0.57462459    -0.51500
O549        O  0.95912078  0.09932717  0.55071222    -0.74700
O550        O  0.93612342  0.02475917  0.59803826    -0.81500
O551        O  0.89354531  0.05212820  0.44857370    -0.83200
O552        O  0.98339003  0.98900359  0.61336876    -0.78800
O553        O  0.88752475  0.05742714  0.50739953    -0.90500
O554        O  0.01214674  0.11378059  0.52249421    -0.76400
O555        O  0.00787510  0.04070124  0.54836669    -0.85900
O556        O  0.97179454  0.06464687  0.48477271    -0.85600
O557        O  0.95865998  0.98135580  0.54665297    -0.72400
O558        O  0.92680032  0.00482882  0.48916209    -0.84500
Zr559      Zr  0.03758681  0.96946463  0.45993477     2.26400
Zr560      Zr  0.02337129  0.98123957  0.55921203     2.06300
Zr561      Zr  0.95638548  0.02797546  0.43723169     2.10000
Zr562      Zr  0.03613303  0.06304286  0.49594138     1.78800
O563        O  0.92163093  0.99666773  0.39475633    -0.93300
O564        O  0.08266162  0.08083401  0.53649248    -0.41100
O565        O  0.02123214  0.02801062  0.44802590    -0.77800
O566        O  0.05327271  0.00522105  0.50776732    -0.96400
O567        O  0.00925236  0.94516628  0.51085524    -0.89800
O568        O  0.97402439  0.96885957  0.44662457    -0.92600
C569        C  0.98426022  0.12047775  0.54228108     1.01200
C570        C  0.87480826  0.06006051  0.47659517     1.14100
C571        C  0.95255163  0.00541788  0.62043684     1.04900
O572        O  0.06390662  0.00917058  0.59945529    -0.94800
O573        O  0.08513555  0.95372385  0.54773605    -0.90500
O574        O  0.08950021  0.94572838  0.48892024    -0.83600
C575        C  0.10255790  0.94385721  0.51950314     1.11500
O576        O  0.88289108  0.93618583  0.51963986    -0.96700
Zr577      Zr  0.94560409  0.94597235  0.49812916     1.88900
O578        O  0.02933460  0.90993234  0.44647364    -0.73400
O579        O  0.02647170  0.92659535  0.59055322    -0.52600
O580        O  0.94176824  0.90299822  0.54472839    -0.97300
O581        O  0.90282206  0.92737976  0.45431574    -0.54500
O582        O  0.97675919  0.89546847  0.47488209    -0.73900
C583        C  0.00595870  0.88781642  0.45678584     0.98500
O584        O  0.09978668  0.96398089  0.43427996    -0.62700
O585        O  0.94837549  0.08094088  0.40354473    -0.57500
O586        O  0.04076420  0.98256571  0.39797934    -0.94200
O587        O  0.99936205  0.02530934  0.38556149    -0.92600
O588        O  0.04106714  0.10863855  0.45221175    -0.93000
O589        O  0.09739781  0.06369565  0.46834401    -0.91800
C590        C  0.02760714  0.00581744  0.37758910     1.17300
H591        H  0.96283805  0.08775405  0.48036970     0.33200
H592        H  0.07960437  0.00594923  0.51040720     0.44100
H593        H  0.97013496  0.95505804  0.42629255     0.37600
H594        H  0.94426637  0.97135550  0.56541322     0.34100
H595        H  0.08785788  0.10490544  0.52977171     0.25900
H596        H  0.03756897  0.93208407  0.61313831     0.31800
H597        H  0.96656096  0.89185104  0.54503878     0.37700
H598        H  0.02620851  0.10082623  0.43258278     0.32200
H599        H  0.92640651  0.07724717  0.38931108     0.31100
H600        H  0.90284106  0.01340902  0.38639102     0.32800
H601        H  0.91838250  0.91900490  0.43442997     0.31700
H602        H  0.09639089  0.04690449  0.44918344     0.35700
H603        H  0.09813427  0.95015850  0.41283873     0.28400
H604        H  0.87372074  0.05221327  0.57047301     0.32700
H605        H  0.88174043  0.94600717  0.54337725     0.35500
H606        H  0.94024452  0.09851364  0.42074144     0.28100
H607        H  0.10645574  0.98727960  0.42622458     0.41000
H608        H  0.04769453  0.01701387  0.61910410     0.31100
H609        H  0.06948637  0.08258773  0.55939344     0.38700
H610        H  0.89104607  0.94886166  0.44559072     0.30500
H611        H  0.00048797  0.92134095  0.59662344     0.30600
H612        H  0.88958664  0.08899371  0.56498143     0.30900
C613        C  0.24444969  0.15582308  0.01055029    -0.02600
Zr614      Zr  0.45429970  0.04120719  0.96182927     2.17500
O615        O  0.45110789  0.07842076  0.91009948    -0.51500
O616        O  0.39374133  0.06126257  0.97980951    -0.74700
O617        O  0.42718153  0.01660547  0.91024564    -0.81500
O618        O  0.50874042  0.11268596  0.00718827    -0.83200
O619        O  0.43892010  0.95911457  0.90931459    -0.78800
O620        O  0.46906913  0.10094260  0.96408677    -0.90500
O621        O  0.37925459  0.04032896  0.03333155    -0.76400
O622        O  0.42745458  0.99039395  0.98492240    -0.85900
O623        O  0.45314388  0.04967322  0.02347566    -0.85600
O624        O  0.49509269  0.99622693  0.94142255    -0.72400
O625        O  0.51632972  0.05077450  0.97866704    -0.84500
Zr626      Zr  0.52842292  0.95993833  0.04506810     2.26400
Zr627      Zr  0.46888844  0.94488830  0.96556244     2.06300
Zr628      Zr  0.51531623  0.05759126  0.04091471     2.10000
Zr629      Zr  0.42700618  0.99850659  0.04676758     1.78800
O630        O  0.57367096  0.08695138  0.04413422    -0.93300
O631        O  0.37133239  0.96470391  0.04440689    -0.41100
O632        O  0.48888483  0.00610236  0.06473638    -0.77800
O633        O  0.46594596  0.95149944  0.02823688    -0.96400
O634        O  0.53106205  0.95310528  0.98323111    -0.89800
O635        O  0.55550284  0.01123615  0.02251526    -0.92600
C636        C  0.37289201  0.06005232  0.00724890     1.01200
C637        C  0.49019021  0.12136919  0.97985168     1.14100
C638        C  0.42611629  0.98723435  0.89552182     1.04900
O639        O  0.41322007  0.91126823  0.96309970    -0.94800
O640        O  0.48110917  0.88865254  0.99384084    -0.90500
O641        O  0.52034951  0.89859695  0.03795480    -0.83600
C642        C  0.50092340  0.87866753  0.01974325     1.11500
O643        O  0.56211375  0.03590738  0.90511204    -0.96700
Zr644      Zr  0.55631940  0.00499509  0.96056971     1.88900
O645        O  0.59148207  0.94459661  0.03062571    -0.73400
O646        O  0.50296134  0.91037833  0.92247770    -0.52600
O647        O  0.58183637  0.96807282  0.91455836    -0.97300
O648        O  0.60250721  0.04939154  0.96246929    -0.54500
O649        O  0.60839140  0.97286146  0.98070439    -0.73900
C650        C  0.61441377  0.95221938  0.00604831     0.98500
O651        O  0.53066354  0.92728730  0.09980577    -0.62700
O652        O  0.48535596  0.09591361  0.08331459    -0.57500
O653        O  0.54977174  0.98252832  0.09985238    -0.94200
O654        O  0.54144543  0.04049406  0.09836240    -0.92600
O655        O  0.41788361  0.02974786  0.10116942    -0.93000
O656        O  0.41600729  0.95934083  0.09578737    -0.91800
C657        C  0.55173896  0.01222755  0.11383997     1.17300
H658        H  0.43921100  0.07007737  0.03003514     0.33200
H659        H  0.45621868  0.93118516  0.03943518     0.44100
H660        H  0.57994743  0.01425980  0.03131374     0.37600
H661        H  0.49614608  0.99556353  0.91623016     0.34100
H662        H  0.35194748  0.98036954  0.03524547     0.25900
H663        H  0.48391040  0.90158049  0.90702175     0.31800
H664        H  0.56381968  0.96942353  0.89557212     0.37700
H665        H  0.39231429  0.02472366  0.10899262     0.32200
H666        H  0.46653346  0.10906828  0.07014120     0.31100
H667        H  0.56830151  0.10647452  0.05994279     0.32800
H668        H  0.62097633  0.04066198  0.97916396     0.31700
H669        H  0.43913992  0.95933792  0.10899089     0.35700
H670        H  0.50667978  0.91570143  0.10207800     0.28400
H671        H  0.42497692  0.07968983  0.90315556     0.32700
H672        H  0.53833060  0.04860364  0.90283893     0.35500
H673        H  0.47097481  0.08056721  0.09899558     0.28100
H674        H  0.54928838  0.90861997  0.09611505     0.41000
H675        H  0.41900211  0.89371034  0.94514835     0.31100
H676        H  0.37644397  0.94816320  0.02535005     0.38700
H677        H  0.58992696  0.06880200  0.97466502     0.30500
H678        H  0.51642496  0.92727950  0.90783142     0.30600
H679        H  0.46465071  0.06633172  0.89092162     0.30900
Zr680      Zr  0.53846554  0.04935789  0.47497557     2.17500
O681        O  0.59287251  0.07357349  0.44602715    -0.51500
O682        O  0.51522831  0.10578613  0.45953675    -0.74700
O683        O  0.54675527  0.03413798  0.41320893    -0.81500
O684        O  0.58320939  0.07026159  0.56259493    -0.83200
O685        O  0.50447227  0.99588493  0.39748383    -0.78800
O686        O  0.59005119  0.07213026  0.50336348    -0.90500
O687        O  0.45807247  0.11604414  0.48310734    -0.76400
O688        O  0.47518850  0.04442604  0.46236679    -0.85900
O689        O  0.50668362  0.07102299  0.52585576    -0.85600
O690        O  0.53325286  0.98904560  0.46547072    -0.72400
O691        O  0.55946576  0.01653413  0.52444371    -0.84500
Zr692      Zr  0.45504702  0.96965590  0.55164942     2.26400
Zr693      Zr  0.46921923  0.98398096  0.45284607     2.06300
Zr694      Zr  0.52564486  0.03696530  0.57531578     2.10000
Zr695      Zr  0.44329724  0.06422181  0.51426408     1.78800
O696        O  0.56824906  0.01304601  0.61773830    -0.93300
O697        O  0.39072816  0.07705051  0.47756416    -0.41100
O698        O  0.46209407  0.02964305  0.56265853    -0.77800
O699        O  0.43501775  0.00516114  0.50340801    -0.96400
O700        O  0.48869690  0.94904640  0.50165574    -0.89800
O701        O  0.51802281  0.97640007  0.56615747    -0.92600
C702        C  0.48648338  0.12469282  0.46506162     1.01200
C703        C  0.60101122  0.07849451  0.53393844     1.14100
C704        C  0.53263476  0.01472365  0.39030028     1.04900
O705        O  0.42407899  0.00407198  0.41084178    -0.94800
O706        O  0.41202989  0.95303840  0.46248955    -0.90500
O707        O  0.40375246  0.94668275  0.52135139    -0.83600
C708        C  0.39365061  0.94339644  0.48984418     1.11500
O709        O  0.61290413  0.96197110  0.48853330    -0.96700
Zr710      Zr  0.55172355  0.95665744  0.51563644     1.88900
O711        O  0.47557043  0.91034005  0.56085402    -0.73400
O712        O  0.47709298  0.92885448  0.42383010    -0.52600
O713        O  0.57112216  0.91038267  0.47666356    -0.97300
O714        O  0.59394786  0.94790850  0.56375937    -0.54500
O715        O  0.53318501  0.90159580  0.53776830    -0.73900
C716        C  0.50419850  0.89142996  0.55396019     0.98500
O717        O  0.40185501  0.95569609  0.58932644    -0.62700
O718        O  0.51839627  0.09007329  0.60817258    -0.57500
O719        O  0.44675388  0.98070733  0.61373583    -0.94200
O720        O  0.48231067  0.02608431  0.62670320    -0.92600
O721        O  0.43643460  0.10983920  0.55703181    -0.93000
O722        O  0.38357471  0.05808365  0.54404640    -0.91800
C723        C  0.45719329  0.00374778  0.63479417     1.17300
H724        H  0.51225783  0.09482995  0.52934655     0.33200
H725        H  0.40879120  0.00460825  0.50011140     0.44100
H726        H  0.52399345  0.96311303  0.58678077     0.37600
H727        H  0.54889635  0.98068578  0.44653768     0.34100
H728        H  0.38435298  0.10147840  0.48207944     0.25900
H729        H  0.47438581  0.91147637  0.44272404     0.31800
H730        H  0.55011780  0.90783866  0.46092845     0.37700
H731        H  0.43838238  0.09800681  0.57994553     0.32200
H732        H  0.54289297  0.09389239  0.61811521     0.31100
H733        H  0.56848373  0.03037507  0.63646029     0.32800
H734        H  0.61839868  0.95523841  0.55478016     0.31700
H735        H  0.38825283  0.04192432  0.56366127     0.35700
H736        H  0.38028728  0.96814682  0.57953444     0.28400
H737        H  0.58390611  0.08686983  0.42562522     0.32700
H738        H  0.61143687  0.98325439  0.47422112     0.35500
H739        H  0.51552299  0.10846935  0.59036423     0.28100
H740        H  0.39718260  0.93102966  0.58582105     0.41000
H741        H  0.42665116  0.02930347  0.40993093     0.31100
H742        H  0.40101471  0.07688470  0.45337068     0.38700
H743        H  0.59653114  0.92268014  0.56647372     0.30500
H744        H  0.45468976  0.92663853  0.40982005     0.30600
H745        H  0.60702351  0.05382085  0.43609597     0.30900
C746        C  0.49849237  0.25207399  0.38238439    -0.02600
Zr747      Zr  0.96461056  0.45324008  0.04415133     2.17500
O748        O  0.98248831  0.42098848  0.09628715    -0.51500
O749        O  0.90228535  0.43404379  0.04096718    -0.74700
O750        O  0.93755506  0.47488536  0.09914272    -0.81500
O751        O  0.02008108  0.38936921  0.98839426    -0.83200
O752        O  0.93645093  0.53308738  0.09808646    -0.78800
O753        O  0.97701463  0.39330696  0.03283925    -0.90500
O754        O  0.87743071  0.46031950  0.99370495    -0.76400
O755        O  0.92972893  0.50217969  0.02560550    -0.85900
O756        O  0.95990864  0.44600826  0.98230275    -0.85600
O757        O  0.99936438  0.50119389  0.06132895    -0.72400
O758        O  0.02582440  0.44833445  0.01886862    -0.84500
Zr759      Zr  0.02281309  0.54073351  0.95654579     2.26400
Zr760      Zr  0.96526635  0.55081399  0.04108931     2.06300
Zr761      Zr  0.02128176  0.44447830  0.95628096     2.10000
Zr762      Zr  0.92512600  0.49479423  0.96428618     1.78800
O763        O  0.07585135  0.40942354  0.94199118    -0.93300
O764        O  0.87101345  0.53292488  0.96439912    -0.41100
O765        O  0.98639765  0.49382310  0.93835507    -0.77800
O766        O  0.96013391  0.54412543  0.97903934    -0.96400
O767        O  0.02706188  0.54629556  0.01804636    -0.89800
O768        O  0.05715350  0.49137466  0.97449802    -0.92600
C769        C  0.87572420  0.43986102  0.02029643     1.01200
C770        C  0.00082036  0.37666078  0.01404143     1.14100
C771        C  0.92956962  0.50398397  0.11337978     1.04900
O772        O  0.90553855  0.58046306  0.04472518    -0.94800
O773        O  0.97363125  0.60856421  0.01333685    -0.90500
O774        O  0.00968418  0.60077889  0.96436037    -0.83600
C775        C  0.99097323  0.61973879  0.98561123     1.11500
O776        O  0.07614480  0.45250710  0.08001505    -0.96700
Zr777      Zr  0.06004897  0.49605055  0.03646025     1.88900
O778        O  0.08236150  0.56422211  0.97128514    -0.73400
O779        O  0.99388936  0.58449346  0.08584571    -0.52600
O780        O  0.07541327  0.51894398  0.09312248    -0.97300
O781        O  0.12061971  0.47298103  0.01873923    -0.54500
O782        O  0.09723260  0.54441900  0.02483118    -0.73900
C783        C  0.10255620  0.56396781  0.99841316     0.98500
O784        O  0.01046096  0.56651358  0.89950386    -0.62700
O785        O  0.98830109  0.41277520  0.91286441    -0.57500
O786        O  0.05586972  0.52326559  0.90367763    -0.94200
O787        O  0.05427335  0.46536241  0.90125996    -0.92600
O788        O  0.91072303  0.45138372  0.92157320    -0.93000
O789        O  0.90910670  0.52392700  0.90993835    -0.91800
C790        C  0.06380573  0.49497650  0.88818726     1.17300
H791        H  0.94711363  0.42521171  0.97723241     0.33200
H792        H  0.94759637  0.56398159  0.96935103     0.44100
H793        H  0.08148692  0.49077846  0.96365683     0.37600
H794        H  0.00142236  0.50163472  0.08641665     0.34100
H795        H  0.84966202  0.51752281  0.96397572     0.25900
H796        H  0.01136634  0.59946054  0.07292530     0.31800
H797        H  0.10236815  0.52252186  0.09164394     0.37700
H798        H  0.88372205  0.44847126  0.92404306     0.32200
H799        H  0.98771239  0.42825721  0.89219813     0.31100
H800        H  0.09152479  0.41109165  0.96267432     0.32800
H801        H  0.11629240  0.44879137  0.01264820     0.31700
H802        H  0.92536404  0.51317594  0.89179575     0.35700
H803        H  0.98392231  0.56275754  0.89589779     0.28400
H804        H  0.00792750  0.41238103  0.09120992     0.32700
H805        H  0.07353321  0.43024534  0.06818263     0.35500
H806        H  0.00562699  0.39393090  0.90589764     0.28100
H807        H  0.01283423  0.59166358  0.90141448     0.41000
H808        H  0.91027450  0.60202274  0.05715211     0.31100
H809        H  0.86995757  0.54292862  0.98806622     0.38700
H810        H  0.13480591  0.47161622  0.04048998     0.30500
H811        H  0.97401431  0.60029694  0.09444359     0.30600
H812        H  0.96726797  0.40018513  0.09706648     0.30900
Zr813      Zr  0.44203987  0.54206487  0.01921115     2.17500
O814        O  0.38692032  0.57247983  0.04129644    -0.51500
O815        O  0.45326806  0.60289016  0.02647643    -0.74700
O816        O  0.43375646  0.53199240  0.08144588    -0.81500
O817        O  0.40292769  0.55579781  0.93301770    -0.83200
O818        O  0.48133512  0.49840298  0.10029448    -0.78800
O819        O  0.38748051  0.53567007  0.98607896    -0.90500
O820        O  0.51010879  0.61609127  0.00501500    -0.76400
O821        O  0.50538572  0.54360837  0.03332831    -0.85900
O822        O  0.47188178  0.56229033  0.96689576    -0.85600
O823        O  0.45755924  0.48407774  0.03626985    -0.72400
O824        O  0.42811792  0.50159677  0.97484292    -0.84500
Zr825      Zr  0.53862902  0.46387753  0.95284030     2.26400
Zr826      Zr  0.52191208  0.48563305  0.04920551     2.06300
Zr827      Zr  0.45927685  0.52102404  0.92265819     2.10000
Zr828      Zr  0.53537762  0.56266480  0.98065979     1.78800
O829        O  0.41818123  0.48729195  0.88804062    -0.93300
O830        O  0.58189987  0.58170012  0.02063278    -0.41100
O831        O  0.52313247  0.52190227  0.93630760    -0.77800
O832        O  0.55329575  0.50522236  0.99689670    -0.96400
O833        O  0.50882264  0.44457607  0.00510579    -0.89800
O834        O  0.47535939  0.46261726  0.93830849    -0.92600
C835        C  0.47955338  0.62394046  0.02092265     1.01200
C836        C  0.38019941  0.55364261  0.95911979     1.14100
C837        C  0.45041935  0.51492101  0.10531234     1.04900
O838        O  0.56125214  0.51741548  0.08742463    -0.94800
O839        O  0.58211817  0.45536510  0.04337959    -0.90500
O840        O  0.59177618  0.44760596  0.98510687    -0.83600
C841        C  0.60194031  0.44560299  0.01668093     1.11500
O842        O  0.38162661  0.44241012  0.01302146    -0.96700
Zr843      Zr  0.44537006  0.44434331  0.99145032     1.88900
O844        O  0.52406280  0.40350659  0.94429222    -0.73400
O845        O  0.52319139  0.43571882  0.08807362    -0.52600
O846        O  0.43867154  0.40787609  0.04323188    -0.97300
O847        O  0.40755010  0.41830206  0.94755558    -0.54500
O848        O  0.47334070  0.39002553  0.97678185    -0.73900
C849        C  0.50068930  0.38203207  0.95672801     0.98500
O850        O  0.59113306  0.43545416  0.92280242    -0.62700
O851        O  0.45426611  0.56535677  0.87753337    -0.57500
O852        O  0.55011065  0.48274721  0.89286731    -0.94200
O853        O  0.50232827  0.51465846  0.87228596    -0.92600
O854        O  0.54071497  0.60434215  0.93310615    -0.93000
O855        O  0.59581019  0.56169793  0.95132471    -0.91800
C856        C  0.53426010  0.49987920  0.86850722     1.17300
H857        H  0.46298677  0.58487178  0.96009038     0.33200
H858        H  0.57942719  0.50648639  0.00053201     0.44100
H859        H  0.47142984  0.44710212  0.91929297     0.37600
H860        H  0.44255195  0.47562063  0.05539481     0.34100
H861        H  0.56909884  0.58257339  0.04376266     0.25900
H862        H  0.53122412  0.44464125  0.11071983     0.31800
H863        H  0.46285132  0.39583602  0.04540246     0.37700
H864        H  0.52178270  0.59769503  0.91641156     0.32200
H865        H  0.42968600  0.56238495  0.86741694     0.31100
H866        H  0.42772657  0.48995226  0.86372712     0.32800
H867        H  0.38648414  0.43450767  0.94430875     0.31700
H868        H  0.60197935  0.53705257  0.94791581     0.35700
H869        H  0.58055793  0.42163367  0.90410235     0.28400
H870        H  0.39344153  0.58282218  0.06376866     0.32700
H871        H  0.37480647  0.46656044  0.01837459     0.35500
H872        H  0.45220795  0.58729560  0.89032485     0.28100
H873        H  0.60552041  0.45325022  0.91026472     0.41000
H874        H  0.54702406  0.53872390  0.09298105     0.31100
H875        H  0.59967526  0.56216938  0.02258512     0.38700
H876        H  0.39673397  0.39796195  0.95929812     0.30500
H877        H  0.49696052  0.42999935  0.09219826     0.30600
H878        H  0.36923894  0.55433136  0.04767380     0.30900
Zr879      Zr  0.04273541  0.47054563  0.54446979     2.17500
O880        O  0.04297187  0.43971127  0.60039122    -0.51500
O881        O  0.10610910  0.45549010  0.52997865    -0.74700
O882        O  0.03589238  0.40967088  0.53996019    -0.81500
O883        O  0.05274007  0.55109290  0.59854628    -0.83200
O884        O  0.00132858  0.39853148  0.49276369    -0.78800
O885        O  0.06381381  0.49333553  0.59891949    -0.90500
O886        O  0.12372593  0.48030735  0.47885443    -0.76400
O887        O  0.04839635  0.46343408  0.48270350    -0.85900
O888        O  0.06803721  0.52285528  0.52348085    -0.85600
O889        O  0.98167204  0.45923104  0.52530613    -0.72400
O890        O  0.00042827  0.51453909  0.56357102    -0.84500
Zr891      Zr  0.96834985  0.54815193  0.45959585     2.26400
Zr892      Zr  0.98721903  0.45319389  0.46272222     2.06300
Zr893      Zr  0.02481370  0.56718390  0.54108924     2.10000
Zr894      Zr  0.07236447  0.51646134  0.46167199     1.78800
O895        O  0.99358710  0.60288403  0.58503620    -0.93300
O896        O  0.09063088  0.48836947  0.40722046    -0.41100
O897        O  0.02906194  0.56034588  0.47900208    -0.77800
O898        O  0.01218359  0.50546427  0.44004757    -0.96400
O899        O  0.94350497  0.49636660  0.48157054    -0.89800
O900        O  0.96386294  0.55646665  0.52122455    -0.92600
C901        C  0.12979757  0.46086156  0.50532121     1.01200
C902        C  0.06448922  0.52285781  0.61331270     1.14100
C903        C  0.01898845  0.38931996  0.52029974     1.04900
O904        O  0.02293363  0.42183927  0.41827373    -0.94800
O905        O  0.95386680  0.46735765  0.40790533    -0.90500
O906        O  0.93977892  0.52448822  0.40883387    -0.83600
C907        C  0.93901800  0.49493189  0.39458637     1.11500
O908        O  0.93115003  0.46565343  0.59340401    -0.96700
Zr909      Zr  0.94015480  0.50398182  0.54339201     1.88900
O910        O  0.90441245  0.56294765  0.47361986    -0.73400
O911        O  0.93422295  0.41627392  0.45798092    -0.52600
O912        O  0.88788852  0.46593975  0.54128966    -0.97300
O913        O  0.92933366  0.53661546  0.59673384    -0.54500
O914        O  0.88797570  0.53805951  0.52490265    -0.73900
C915        C  0.88095711  0.55730697  0.49864113     0.98500
O916        O  0.97766384  0.58334628  0.40707613    -0.62700
O917        O  0.08056064  0.60093952  0.54185195    -0.57500
O918        O  0.97273611  0.60844831  0.46328221    -0.94200
O919        O  0.00912737  0.62144577  0.50874215    -0.92600
O920        O  0.12536963  0.55195551  0.47211552    -0.93000
O921        O  0.08227208  0.55817993  0.41466786    -0.91800
C922        C  0.98938133  0.62974879  0.48197620     1.17300
H923        H  0.09197209  0.52634034  0.53322537     0.33200
H924        H  0.01357990  0.50509569  0.41482632     0.44100
H925        H  0.94770555  0.57569544  0.52700378     0.37600
H926        H  0.97215225  0.43867366  0.53614387     0.34100
H927        H  0.11793044  0.48888667  0.40653654     0.25900
H928        H  0.94457384  0.39387830  0.45003660     0.31800
H929        H  0.88502527  0.46132849  0.51613275     0.37700
H930        H  0.11481080  0.57296307  0.48311213     0.32200
H931        H  0.07498496  0.61902088  0.55929058     0.31100
H932        H  0.97211521  0.61333204  0.57313028     0.32800
H933        H  0.90420223  0.53053691  0.60495886     0.31700
H934        H  0.06884590  0.57927618  0.42239178     0.35700
H935        H  0.99198809  0.56857806  0.39051872     0.28400
H936        H  0.06237885  0.42153449  0.59845590     0.32700
H937        H  0.95640619  0.45850684  0.60004587     0.35500
H938        H  0.09927492  0.58585455  0.55300133     0.28100
H939        H  0.95314218  0.58663640  0.39657811     0.41000
H940        H  0.01467569  0.39785023  0.42059007     0.31100
H941        H  0.08488516  0.46390486  0.41124171     0.38700
H942        H  0.92700578  0.56084227  0.58892814     0.30500
H943        H  0.92578367  0.41206621  0.48242036     0.30600
H944        H  0.01941776  0.42733484  0.60205872     0.30900
C945        C  0.25882910  0.36606116  0.50449345    -0.02600
Zr946      Zr  0.46002410  0.46905481  0.45634543     2.17500
O947        O  0.40370813  0.46790338  0.42270948    -0.51500
O948        O  0.47883955  0.41071037  0.44055969    -0.74700
O949        O  0.45237155  0.48318029  0.39514086    -0.81500
O950        O  0.41647221  0.44611853  0.54533226    -0.83200
O951        O  0.49208431  0.52573234  0.38039019    -0.78800
O952        O  0.41117984  0.44079362  0.48646885    -0.90500
O953        O  0.53368760  0.39683834  0.46384151    -0.76400
O954        O  0.52322043  0.47296931  0.43964210    -0.85900
O955        O  0.49110274  0.44489116  0.50529173    -0.85600
O956        O  0.46776962  0.52934177  0.44862169    -0.72400
O957        O  0.43964174  0.50135740  0.50689957    -0.84500
Zr958      Zr  0.54392350  0.54429716  0.52789521     2.26400
Zr959      Zr  0.53129925  0.53386986  0.43185829     2.06300
Zr960      Zr  0.47340534  0.47820630  0.55560325     2.10000
Zr961      Zr  0.55446248  0.44978687  0.48927304     1.78800
O962        O  0.42952716  0.49886064  0.60023695    -0.93300
O963        O  0.60283824  0.43789394  0.44551893    -0.41100
O964        O  0.53671960  0.48397202  0.53874204    -0.77800
O965        O  0.56538164  0.50967554  0.47975826    -0.96400
O966        O  0.51077692  0.56335563  0.48130513    -0.89800
O967        O  0.48178369  0.53854403  0.54725789    -0.92600
C968        C  0.50474432  0.38891790  0.44736604     1.01200
C969        C  0.39999232  0.43599474  0.51784085     1.14100
C970        C  0.46514630  0.50575318  0.37374645     1.04900
O971        O  0.57228030  0.50984628  0.38614228    -0.94800
O972        O  0.58907694  0.56290560  0.44247080    -0.90500
O973        O  0.57198169  0.58802774  0.49269601    -0.83600
C974        C  0.59554807  0.58244599  0.46828318     1.11500
O975        O  0.38942161  0.56479009  0.47159083    -0.96700
Zr976      Zr  0.44972236  0.56164268  0.49882074     1.88900
O977        O  0.52199579  0.59723388  0.55397782    -0.73400
O978        O  0.52975796  0.58972871  0.40311531    -0.52600
O979        O  0.43482232  0.61011881  0.46087046    -0.97300
O980        O  0.40148376  0.56529323  0.54469929    -0.54500
O981        O  0.46962828  0.61313300  0.52725578    -0.73900
C982        C  0.49618813  0.61922681  0.54749603     0.98500
O983        O  0.60683188  0.54990659  0.54856810    -0.62700
O984        O  0.48219167  0.42428358  0.58761455    -0.57500
O985        O  0.55582358  0.53109268  0.58759361    -0.94200
O986        O  0.51449263  0.49091426  0.60546883    -0.92600
O987        O  0.56478695  0.40298548  0.53083656    -0.93000
O988        O  0.61503667  0.45096633  0.51532825    -0.91800
C989        C  0.54235737  0.51054158  0.61053760     1.17300
H990        H  0.48455949  0.42127213  0.50942625     0.33200
H991        H  0.59172395  0.51170563  0.47647846     0.44100
H992        H  0.47632387  0.55067970  0.56868408     0.37600
H993        H  0.45203279  0.53845725  0.43068207     0.34100
H994        H  0.58961023  0.43478178  0.42351293     0.25900
H995        H  0.54013199  0.58551484  0.37934341     0.31800
H996        H  0.45738647  0.61311220  0.44618745     0.37700
H997        H  0.55072366  0.40997153  0.55218365     0.32200
H998        H  0.47367632  0.42929745  0.61183560     0.31100
H999        H  0.43058071  0.48133390  0.61911785     0.32800
H1000       H  0.38587029  0.58545878  0.53833283     0.31700
H1001       H  0.61163033  0.46603681  0.53588332     0.35700
H1002       H  0.62306631  0.53930771  0.53033795     0.28400
H1003       H  0.39419645  0.44430284  0.42433906     0.32700
H1004       H  0.37910420  0.54160891  0.47463223     0.35500
H1005       H  0.46359878  0.40856765  0.57869664     0.28100
H1006       H  0.61216319  0.57471937  0.54743703     0.41000
H1007       H  0.58609905  0.52961996  0.37654843     0.31100
H1008       H  0.61565334  0.45992172  0.44219669     0.38700
H1009       H  0.41402948  0.57243530  0.56601513     0.30500
H1010       H  0.50322770  0.59468489  0.39962661     0.30600
H1011       H  0.38556693  0.48235467  0.43593312     0.30900
C1012       C  0.37715566  0.51164132  0.24507302    -0.02600
C1013       C  0.99521319  0.75402719  0.91058404    -0.02600
Zr1014     Zr  0.19733994  0.71848203  0.77601328     2.17500
O1015       O  0.14221521  0.68437535  0.77246895    -0.51500
O1016       O  0.21152377  0.70743919  0.83633686    -0.74700
O1017       O  0.21029747  0.65734744  0.77034595    -0.81500
O1018       O  0.13668150  0.79397104  0.79698714    -0.83200
O1019       O  0.25527574  0.64827078  0.72890097    -0.78800
O1020       O  0.14044439  0.73605579  0.80449785    -0.90500
O1021       O  0.26120667  0.73708331  0.85261963    -0.76400
O1022       O  0.26246172  0.71423555  0.77943819    -0.85900
O1023       O  0.21460619  0.77134980  0.80088025    -0.85600
O1024       O  0.21766740  0.70961385  0.71679670    -0.72400
O1025       O  0.17362373  0.76234910  0.73766793    -0.84500
Zr1026     Zr  0.28078521  0.80254134  0.70567920     2.26400
Zr1027     Zr  0.28355954  0.70531239  0.72030688     2.06300
Zr1028     Zr  0.19226603  0.81521195  0.76240991     2.10000
Zr1029     Zr  0.28021911  0.76827974  0.80210366     1.78800
O1030       O  0.14690972  0.84634974  0.72772371    -0.93300
O1031       O  0.33484679  0.73473254  0.81805298    -0.41100
O1032       O  0.25845527  0.81230044  0.76413474    -0.77800
O1033       O  0.30286689  0.75869452  0.74437954    -0.96400
O1034       O  0.26261136  0.74992214  0.68134158    -0.89800
O1035       O  0.21516032  0.80763499  0.70339029    -0.92600
C1036       C  0.23539863  0.71614311  0.85858039     1.01200
C1037       C  0.12369694  0.76495608  0.80875799     1.14100
C1038       C  0.22865903  0.63783688  0.74914595     1.04900
O1039       O  0.32891303  0.67085080  0.75168514    -0.94800
O1040       O  0.34321887  0.72163281  0.69385186    -0.90500
O1041       O  0.33948013  0.77930198  0.68437139    -0.83600
C1042       C  0.35669371  0.75020748  0.68273018     1.11500
O1043       O  0.14443481  0.71768712  0.67443893    -0.96700
Zr1044     Zr  0.19721718  0.75485528  0.67895904     1.88900
O1045       O  0.27160361  0.81195832  0.64403258    -0.73400
O1046       O  0.29205518  0.67502878  0.66522129    -0.52600
O1047       O  0.20421114  0.71503998  0.63055198    -0.97300
O1048       O  0.14587943  0.79125504  0.65969864    -0.54500
O1049       O  0.22094329  0.78383873  0.62717403    -0.73900
C1050       C  0.24813397  0.80364430  0.62129832     0.98500
O1051       O  0.33580550  0.83687469  0.71173288    -0.62700
O1052       O  0.17682232  0.85546844  0.80908868    -0.57500
O1053       O  0.26662757  0.86351851  0.70978512    -0.94200
O1054       O  0.22995497  0.86801011  0.75850512    -0.92600
O1055       O  0.27170711  0.81192383  0.84684300    -0.93000
O1056       O  0.33447181  0.80266484  0.81059525    -0.91800
C1057       C  0.25367681  0.88032899  0.73604872     1.17300
H1058       H  0.20398695  0.77449274  0.82406577     0.33200
H1059       H  0.32933522  0.75915768  0.74601939     0.44100
H1060       H  0.20802952  0.82690858  0.68887934     0.37600
H1061       H  0.20746156  0.68887258  0.70789111     0.34100
H1062       H  0.33863196  0.74010876  0.84291206     0.25900
H1063       H  0.30031272  0.69264612  0.64807530     0.31800
H1064       H  0.21706946  0.69465932  0.64050568     0.37700
H1065       H  0.26591596  0.83336623  0.83378525     0.32200
H1066       H  0.15026513  0.86107761  0.80651437     0.31100
H1067       H  0.15955320  0.86745453  0.71987811     0.32800
H1068       H  0.13941889  0.78183466  0.63677574     0.31700
H1069       H  0.33257026  0.82118226  0.79283184     0.35700
H1070       H  0.33394111  0.85590404  0.69449007     0.28400
H1071       H  0.14617222  0.66262526  0.78557345     0.32700
H1072       H  0.12663546  0.72592723  0.69267553     0.35500
H1073       H  0.17808655  0.84161309  0.83087538     0.28100
H1074       H  0.33285799  0.84797008  0.73480395     0.41000
H1075       H  0.34838068  0.68716752  0.75740688     0.31100
H1076       H  0.32678035  0.71061531  0.81843333     0.38700
H1077       H  0.15671378  0.81377454  0.65386879     0.30500
H1078       H  0.31402063  0.65993386  0.66857781     0.30600
H1079       H  0.14073352  0.67806327  0.74760683     0.30900
C1080       C  0.50913440  0.75362263  0.61952863    -0.02600
C1081       C  0.44160268  0.77638463  0.63065660    -0.05900
C1082       C  0.47102345  0.75422979  0.64256003     0.00000
C1083       C  0.45963103  0.72890038  0.66845397    -0.08600
C1084       C  0.42250512  0.72900156  0.68127090    -0.06000
C1085       C  0.39490565  0.75059563  0.66759787     0.00000
C1086       C  0.40448890  0.77337860  0.64035256    -0.08500
C1087       C  0.37565687  0.79345146  0.61936607     0.61900
H1088       H  0.44573574  0.79521688  0.61053309     0.12600
H1089       H  0.41465627  0.71101379  0.70182433     0.12600
C1090       C  0.48307013  0.69985706  0.68360281     0.62100
F1091       F  0.38956681  0.80409037  0.58707593    -0.23000
F1092       F  0.36394923  0.82236205  0.63744876    -0.20400
F1093       F  0.34579234  0.77309137  0.61302028    -0.20100
F1094       F  0.48411016  0.70331452  0.71950880    -0.20100
F1095       F  0.51858127  0.69851596  0.67101733    -0.20400
F1096       F  0.46725617  0.66881183  0.67626372    -0.23100
C1097       C  0.08305079  0.78953099  0.85592250    -0.05900
C1098       C  0.08863310  0.76396564  0.83117361     0.00000
C1099       C  0.06562206  0.73481059  0.83398931    -0.08600
C1100       C  0.04058575  0.73132706  0.86280635    -0.06000
C1101       C  0.03243342  0.75798741  0.88686699     0.00000
C1102       C  0.05859790  0.78617656  0.88524842    -0.08500
C1103       C  0.06758474  0.81177235  0.91366167     0.61900
H1104       H  0.10121348  0.81129327  0.85420542     0.12600
H1105       H  0.02393009  0.70857315  0.86418243     0.12600
C1106       C  0.06396187  0.70794636  0.80572901     0.62100
F1107       F  0.05298152  0.84377321  0.90537216    -0.23000
F1108       F  0.05633774  0.80212564  0.94646981    -0.20400
F1109       F  0.10549346  0.81493426  0.91572325    -0.20100
F1110       F  0.08150338  0.67809832  0.81684179    -0.20100
F1111       F  0.07952932  0.71911990  0.77442287    -0.20400
F1112       F  0.02764190  0.70061615  0.79926424    -0.23100
C1113       C  0.53270324  0.66168187  0.57803367    -0.05900
C1114       C  0.49863377  0.65356236  0.56440026     0.00000
C1115       C  0.46903773  0.67734228  0.56891189    -0.08600
C1116       C  0.47539113  0.70804866  0.58652383    -0.06000
C1117       C  0.50967198  0.71722557  0.60086084     0.00000
C1118       C  0.53849024  0.69036098  0.59916950    -0.08500
C1119       C  0.57593492  0.68583056  0.61729240     0.61900
H1120       H  0.55558031  0.64372161  0.57360468     0.12600
H1121       H  0.45231853  0.72553077  0.58919649     0.12600
C1122       C  0.43074323  0.67129970  0.55508568     0.62100
F1123       F  0.57947210  0.65236190  0.62976082    -0.23000
F1124       F  0.58225673  0.70531351  0.64588736    -0.20400
F1125       F  0.60391124  0.69080065  0.59271238    -0.20100
F1126       F  0.41733453  0.64081056  0.56844035    -0.20100
F1127       F  0.43245192  0.67021052  0.51898844    -0.20400
F1128       F  0.40562362  0.69709162  0.56445011    -0.23100
C1129       C  0.44980693  0.48293395  0.31595891    -0.05900
C1130       C  0.44542506  0.50926929  0.34026457     0.00000
C1131       C  0.41674596  0.53382989  0.33582092    -0.08600
C1132       C  0.39470668  0.53205099  0.30625297    -0.06000
C1133       C  0.40080074  0.50796430  0.27906144     0.00000
C1134       C  0.42785549  0.48078289  0.28590859    -0.08500
C1135       C  0.43281479  0.44765308  0.26493711     0.61900
H1136       H  0.46993283  0.46292644  0.32189006     0.12600
H1137       H  0.37209861  0.55016295  0.30492154     0.12600
C1138       C  0.40843808  0.56147144  0.36281038     0.62100
F1139       F  0.40334584  0.42655712  0.27169838    -0.23000
F1140       F  0.46432948  0.42929477  0.27408152    -0.20400
F1141       F  0.43622395  0.45378015  0.22963947    -0.20100
F1142       F  0.43957115  0.58053679  0.36761599    -0.20100
F1143       F  0.39761330  0.54637213  0.39410065    -0.20400
F1144       F  0.38038187  0.58389422  0.35275278    -0.23100
C1145       C  0.36381000  0.38367226  0.52207070    -0.05900
C1146       C  0.36410620  0.41942856  0.52035297     0.00000
C1147       C  0.33232444  0.43741902  0.50940227    -0.08600
C1148       C  0.30131737  0.41904207  0.50050603    -0.06000
C1149       C  0.29851180  0.38290219  0.50474545     0.00000
C1150       C  0.33226589  0.36470411  0.51450424    -0.08500
C1151       C  0.33866924  0.32587390  0.51826011     0.61900
H1152       H  0.38927520  0.37018869  0.52855455     0.12600
H1153       H  0.27804042  0.43470366  0.49318631     0.12600
C1154       C  0.32921490  0.47638369  0.50686335     0.62100
F1155       F  0.34547486  0.31795003  0.55284676    -0.23000
F1156       F  0.36936789  0.31617816  0.49823718    -0.20400
F1157       F  0.31043524  0.30587290  0.50778582    -0.20100
F1158       F  0.32596707  0.48608508  0.47222440    -0.20100
F1159       F  0.35896241  0.49272863  0.52053722    -0.20400
F1160       F  0.29794817  0.48763597  0.52519129    -0.23100
C1161       C  0.18649696  0.43729634  0.47555211    -0.05900
C1162       C  0.16551423  0.44166111  0.50654070     0.00000
C1163       C  0.17701365  0.42439989  0.53694091    -0.08600
C1164       C  0.20371880  0.39847322  0.53366074    -0.06000
C1165       C  0.22671470  0.39396246  0.50342009     0.00000
C1166       C  0.21787551  0.41524036  0.47341726    -0.08500
C1167       C  0.23661757  0.41337934  0.43718250     0.61900
H1168       H  0.17755167  0.45059663  0.45215492     0.12600
H1169       H  0.20645337  0.38229033  0.55635446     0.12600
C1170       C  0.16286135  0.43340624  0.57349888     0.62100
F1171       F  0.23563947  0.44538881  0.42110486    -0.23000
F1172       F  0.21789863  0.39093244  0.41666238    -0.20400
F1173       F  0.27315702  0.40338528  0.43759941    -0.20100
F1174       F  0.13005994  0.41726119  0.58093139    -0.20100
F1175       F  0.15806689  0.46856825  0.57671618    -0.20400
F1176       F  0.18796602  0.42292244  0.59818132    -0.23100
C1177       C  0.45478808  0.51458664  0.16956260    -0.05900
C1178       C  0.43228946  0.51402791  0.14057188     0.00000
C1179       C  0.39354729  0.51605440  0.14602213    -0.08600
C1180       C  0.37938636  0.52117260  0.17993410    -0.06000
C1181       C  0.40104373  0.51793210  0.21028636     0.00000
C1182       C  0.44081977  0.51859476  0.20411071    -0.08500
C1183       C  0.47162206  0.52614244  0.22936284     0.61900
H1184       H  0.48443268  0.51387886  0.16481687     0.12600
H1185       H  0.34966010  0.52259868  0.18291049     0.12600
C1186       C  0.36527901  0.50989731  0.11809412     0.62100
F1187       F  0.49419456  0.55095879  0.21463518    -0.23000
F1188       F  0.49300325  0.49679511  0.23456333    -0.20400
F1189       F  0.46034511  0.53888241  0.26098924    -0.20100
F1190       F  0.38004289  0.49330581  0.08910427    -0.20100
F1191       F  0.34949972  0.54097885  0.10822430    -0.20400
F1192       F  0.33758538  0.48919382  0.13144067    -0.23100
C1193       C  0.01574394  0.67908334  0.98132667    -0.05900
C1194       C  0.98777857  0.65618461  0.97378208     0.00000
C1195       C  0.96581912  0.66357156  0.94497097    -0.08600
C1196       C  0.97441579  0.69142807  0.92318453    -0.06000
C1197       C  0.99863610  0.71815970  0.93223735     0.00000
C1198       C  0.02325832  0.70887267  0.96043395    -0.08500
C1199       C  0.05956938  0.72631991  0.96791796     0.61900
H1200       H  0.03330917  0.67221609  0.00287625     0.12600
H1201       H  0.96113632  0.69160596  0.89836109     0.12600
C1202       C  0.93329253  0.64145582  0.93650015     0.62100
F1203       F  0.08390694  0.70392939  0.98429080    -0.23000
F1204       F  0.05410517  0.75359008  0.99018135    -0.20400
F1205       F  0.07734977  0.73666453  0.93762381    -0.20100
F1206       F  0.91287701  0.63461426  0.96669054    -0.20100
F1207       F  0.94563699  0.61096082  0.92199662    -0.20400
F1208       F  0.91002982  0.65778634  0.91314189    -0.23100
C1209       C  0.46689774  0.30487129  0.41266638    -0.05900
C1210       C  0.49921145  0.28400830  0.40796270     0.00000
C1211       C  0.53145693  0.29566293  0.42526858    -0.08600
C1212       C  0.53174255  0.32978013  0.43759789    -0.06000
C1213       C  0.50091969  0.35230481  0.43595408     0.00000
C1214       C  0.46704808  0.33856225  0.42540949    -0.08500
C1215       C  0.43066736  0.35892781  0.42689787     0.61900
H1216       H  0.44087565  0.29593219  0.40460342     0.12600
H1217       H  0.55709217  0.33908031  0.44812460     0.12600
C1218       C  0.56688184  0.27475310  0.43145316     0.62100
F1219       F  0.40090395  0.33900292  0.41963464    -0.23000
F1220       F  0.43134295  0.38526535  0.40239632    -0.20400
F1221       F  0.42450978  0.37192661  0.46003926    -0.20100
F1222       F  0.59549906  0.28806001  0.41137556    -0.20100
F1223       F  0.56443883  0.24034870  0.42437194    -0.20400
F1224       F  0.57598099  0.27716327  0.46620073    -0.23100
C1225       C  0.50239607  0.82815701  0.54619952    -0.05900
C1226       C  0.50517855  0.85632774  0.56826698     0.00000
C1227       C  0.50900029  0.85118923  0.60409069    -0.08600
C1228       C  0.50956461  0.81786788  0.61695506    -0.06000
C1229       C  0.50770791  0.78774786  0.59594848     0.00000
C1230       C  0.50192085  0.79366106  0.55887896    -0.08500
C1231       C  0.48960863  0.76724500  0.53242615     0.61900
H1232       H  0.49846577  0.83399451  0.51882599     0.12600
H1233       H  0.50976506  0.81507487  0.64502295     0.12600
C1234       C  0.51221695  0.88107658  0.62899046     0.62100
F1235       F  0.49073606  0.78017269  0.49858293    -0.23000
F1236       F  0.45333281  0.75914645  0.53957045    -0.20400
F1237       F  0.51155248  0.73800526  0.53172744    -0.20100
F1238       F  0.48007197  0.90067925  0.62856678    -0.20100
F1239       F  0.54166281  0.90109485  0.61867925    -0.20400
F1240       F  0.51781389  0.87037550  0.66309955    -0.23100
C1241       C  0.48061721  0.15605964  0.41124428    -0.05900
C1242       C  0.48553847  0.15761014  0.44691884     0.00000
C1243       C  0.49139586  0.18924131  0.46287926    -0.08600
C1244       C  0.49447333  0.21849452  0.44149734    -0.06000
C1245       C  0.49398962  0.21742953  0.40428665     0.00000
C1246       C  0.48453111  0.18460636  0.38923653    -0.08500
C1247       C  0.47819706  0.17586542  0.35085709     0.61900
H1248       H  0.47445277  0.13132633  0.40015021     0.12600
H1249       H  0.49813657  0.24219504  0.45509604     0.12600
C1250       C  0.49465013  0.19397891  0.50205002     0.62100
F1251       F  0.49840922  0.14657906  0.34191470    -0.23000
F1252       F  0.48790712  0.20064623  0.32702569    -0.20400
F1253       F  0.44144357  0.16890953  0.34670995    -0.20100
F1254       F  0.52769192  0.20945784  0.50870595    -0.20100
F1255       F  0.49347675  0.16362565  0.52095971    -0.20400
F1256       F  0.46595956  0.21511182  0.51390268    -0.23100
C1257       C  0.33181563  0.10117374  0.97732570    -0.05900
C1258       C  0.34092849  0.08460764  0.00865267     0.00000
C1259       C  0.32196383  0.09442392  0.03971762    -0.08600
C1260       C  0.29470592  0.12008245  0.03760286    -0.06000
C1261       C  0.28381390  0.13685546  0.00625963     0.00000
C1262       C  0.30495200  0.12763125  0.97480274    -0.08500
C1263       C  0.30263262  0.14406802  0.93831464     0.61900
H1264       H  0.34676827  0.09298451  0.95404939     0.12600
H1265       H  0.27979308  0.12629910  0.06119002     0.12600
C1266       C  0.32960789  0.07845560  0.07539298     0.62100
F1267       F  0.32558827  0.12812598  0.91362376    -0.23000
F1268       F  0.31424246  0.17746958  0.93941233    -0.20400
F1269       F  0.26784919  0.14190308  0.92530769    -0.20100
F1270       F  0.36540817  0.08511631  0.08440750    -0.20100
F1271       F  0.32423643  0.04343580  0.07465846    -0.20400
F1272       F  0.30640012  0.09152946  0.10154582    -0.23100
C1273       C  0.08800440  0.01868904  0.35212025    -0.05900
C1274       C  0.05122721  0.01237344  0.34566037     0.00000
C1275       C  0.04101796  0.00797020  0.31078465    -0.08600
C1276       C  0.06872884  0.00879210  0.28376602    -0.06000
C1277       C  0.10744605  0.01033642  0.29024637     0.00000
C1278       C  0.11634298  0.01591105  0.32657052    -0.08500
C1279       C  0.15437673  0.01883998  0.34227813     0.61900
H1280       H  0.09515825  0.02391950  0.37886299     0.12600
H1281       H  0.05921919  0.00844534  0.25745337     0.12600
C1282       C  0.00114809  0.00181448  0.30237099     0.62100
F1283       F  0.15686755  0.99712884  0.37101590    -0.23000
F1284       F  0.15916464  0.05216526  0.35313573    -0.20400
F1285       F  0.18304766  0.00983721  0.32047318    -0.20100
F1286       F  0.97913379  0.02874479  0.31458660    -0.20100
F1287       F  0.98996744  0.97164597  0.31832649    -0.20400
F1288       F  0.99615480  0.99906505  0.26678160    -0.23100
C1289       C  0.36114849  0.45452097  0.21276405    -0.05900
C1290       C  0.35579437  0.47597285  0.24269134     0.00000
C1291       C  0.33113921  0.46262676  0.26969636    -0.08600
C1292       C  0.31315352  0.43126685  0.26405637    -0.06000
C1293       C  0.31924394  0.41087368  0.23427310     0.00000
C1294       C  0.34326513  0.42321418  0.20775585    -0.08500
C1295       C  0.35215076  0.40260447  0.17497111     0.61900
H1296       H  0.38190089  0.46039478  0.19343196     0.12600
H1297       H  0.29495981  0.42119161  0.28426941     0.12600
C1298       C  0.32572622  0.47771935  0.30637794     0.62100
F1299       F  0.37617562  0.41935021  0.15219716    -0.23000
F1300       F  0.32021747  0.39709788  0.15708051    -0.20400
F1301       F  0.36840027  0.37148249  0.18415517    -0.20100
F1302       F  0.29601337  0.46357201  0.32435609    -0.20100
F1303       F  0.31883781  0.51253620  0.30569207    -0.20400
F1304       F  0.35656880  0.47051708  0.32579982    -0.23100
C1305       C  0.21948613  0.30550845  0.43096795    -0.05900
C1306       C  0.25149415  0.29903697  0.41085910     0.00000
C1307       C  0.28475060  0.31333325  0.42154960    -0.08600
C1308       C  0.28461547  0.33521300  0.44992249    -0.06000
C1309       C  0.25343266  0.34199392  0.47170876     0.00000
C1310       C  0.21913173  0.32654868  0.46118175    -0.08500
C1311       C  0.18079045  0.33372579  0.47777545     0.61900
H1312       H  0.19395449  0.29606904  0.42101609     0.12600
H1313       H  0.31051768  0.34714781  0.45435751     0.12600
C1314       C  0.32176215  0.30753434  0.40329982     0.62100
F1315       F  0.16688238  0.36488111  0.46614753    -0.23000
F1316       F  0.18099125  0.33348897  0.51368722    -0.20400
F1317       F  0.15587192  0.30920020  0.46841770    -0.20100
F1318       F  0.33303516  0.33781800  0.38759782    -0.20100
F1319       F  0.32071627  0.28269697  0.37846823    -0.20400
F1320       F  0.34732631  0.29687886  0.42753557    -0.23100
C1321       C  0.42939527  0.24304183  0.37466048    -0.05900
C1322       C  0.46298414  0.25524944  0.35903602     0.00000
C1323       C  0.45917486  0.27188996  0.32531303    -0.08600
C1324       C  0.42399452  0.28452461  0.31646669    -0.06000
C1325       C  0.39229538  0.27013481  0.33113845     0.00000
C1326       C  0.39548465  0.24607248  0.35870030    -0.08500
C1327       C  0.36518804  0.22215639  0.37207045     0.61900
H1328       H  0.42891589  0.23032130  0.39987174     0.12600
H1329       H  0.42108963  0.29986877  0.29278411     0.12600
C1330       C  0.48528416  0.27070543  0.29319563     0.62100
F1331       F  0.35692352  0.22891665  0.40680499    -0.23000
F1332       F  0.37762392  0.18849995  0.36983564    -0.20400
F1333       F  0.33303603  0.22458256  0.35356178    -0.20100
F1334       F  0.51695631  0.25129678  0.29638134    -0.20100
F1335       F  0.49416808  0.30364343  0.28301137    -0.20400
F1336       F  0.46692778  0.25616769  0.26586151    -0.23100
C1337       C  0.13273335  0.07541018  0.27298315    -0.05900
C1338       C  0.15782590  0.04749124  0.26503549     0.00000
C1339       C  0.19692898  0.05616130  0.26654571    -0.08600
C1340       C  0.20624850  0.09135789  0.26868683    -0.06000
C1341       C  0.18024361  0.11777150  0.27437607     0.00000
C1342       C  0.14302984  0.10953923  0.27810715    -0.08500
C1343       C  0.11396607  0.13722803  0.28595291     0.61900
H1344       H  0.10348803  0.07086776  0.27356032     0.12600
H1345       H  0.23497046  0.09859358  0.26644356     0.12600
C1346       C  0.23190988  0.03314043  0.26682003     0.62100
F1347       F  0.07905320  0.12388391  0.29035838    -0.23000
F1348       F  0.11310264  0.16089939  0.25878493    -0.20400
F1349       F  0.12244791  0.15373762  0.31642796    -0.20100
F1350       F  0.25165265  0.03761798  0.23580273    -0.20100
F1351       F  0.22710593  0.99881496  0.27217189    -0.20400
F1352       F  0.25397667  0.04328422  0.29375639    -0.23100
C1353       C  0.21821370  0.22850472  0.07860560    -0.05900
C1354       C  0.25154103  0.23212309  0.09486044     0.00000
C1355       C  0.28352521  0.21621074  0.08102118    -0.08600
C1356       C  0.28024728  0.19454932  0.05229088    -0.06000
C1357       C  0.24539936  0.18520533  0.03896123     0.00000
C1358       C  0.21423760  0.20652682  0.05016349    -0.08500
C1359       C  0.17651215  0.20759014  0.03393425     0.61900
H1360       H  0.19459557  0.24202440  0.09019999     0.12600
H1361       H  0.30558868  0.18457257  0.04073650     0.12600
C1362       C  0.32060577  0.22124265  0.09755672     0.62100
F1363       F  0.16095311  0.17612704  0.03692995    -0.23000
F1364       F  0.17860865  0.21837967  0.99961951    -0.20400
F1365       F  0.15259715  0.23049076  0.05058480    -0.20100
F1366       F  0.31910908  0.21074248  0.13217971    -0.20100
F1367       F  0.32922176  0.25562379  0.09585294    -0.20400
F1368       F  0.34863735  0.20261450  0.08082260    -0.23100
C1369       C  0.98940149  0.78507376  0.97097011    -0.05900
C1370       C  0.98839408  0.78689162  0.93369545     0.00000
C1371       C  0.98092268  0.82045348  0.91894556    -0.08600
C1372       C  0.98155009  0.84905369  0.94106856    -0.06000
C1373       C  0.99074900  0.84725853  0.97656986     0.00000
C1374       C  0.99250628  0.81450761  0.99230298    -0.08500
C1375       C  0.99641114  0.81082775  0.03141567     0.61900
H1376       H  0.98891430  0.76054538  0.98388550     0.12600
H1377       H  0.97453200  0.87383425  0.93027166     0.12600
C1378       C  0.97046538  0.82790972  0.88083188     0.62100
F1379       F  0.99475165  0.77691833  0.04236645    -0.23000
F1380       F  0.96822495  0.82911551  0.04826806    -0.20400
F1381       F  0.02998080  0.82347661  0.04097956    -0.20100
F1382       F  0.99471330  0.81266423  0.85724502    -0.20100
F1383       F  0.93510911  0.81710633  0.87513564    -0.20400
F1384       F  0.97071802  0.86261688  0.87283238    -0.23100
C1385       C  0.22093849  0.09868172  0.99304821    -0.05900
C1386       C  0.22009077  0.12402744  0.01964082     0.00000
C1387       C  0.20018666  0.11503704  0.05150715    -0.08600
C1388       C  0.17387083  0.08908645  0.04956973    -0.06000
C1389       C  0.17065774  0.06827751  0.02007865     0.00000
C1390       C  0.19810173  0.07026191  0.99339488    -0.08500
C1391       C  0.20232675  0.04451070  0.96393510     0.61900
H1392       H  0.23798410  0.10266196  0.96995466     0.12600
H1393       H  0.15539604  0.08489081  0.07187814     0.12600
C1394       C  0.20406084  0.12826607  0.08874488     0.62100
F1395       F  0.23476786  0.04886086  0.94468305    -0.23000
F1396       F  0.17340267  0.04839674  0.94137686    -0.20400
F1397       F  0.20323678  0.01149104  0.97758425    -0.20100
F1398       F  0.17179702  0.14511753  0.09929878    -0.20100
F1399       F  0.23292542  0.14943419  0.09417923    -0.20400
F1400       F  0.20934029  0.10028515  0.11083746    -0.23100
C1401       C  0.10689787  0.02402464  0.15882570    -0.05900
C1402       C  0.08902732  0.99311256  0.15268911     0.00000
C1403       C  0.08545317  0.96995656  0.18119467    -0.08600
C1404       C  0.10053939  0.97857021  0.21381601    -0.06000
C1405       C  0.11758001  0.01050305  0.22109955     0.00000
C1406       C  0.11784337  0.03512129  0.19205228    -0.08500
C1407       C  0.12592530  0.07374261  0.19322743     0.61900
H1408       H  0.11110957  0.04073113  0.13649048     0.12600
H1409       H  0.09893868  0.95979181  0.23477898     0.12600
C1410       C  0.06597125  0.93618520  0.17757893     0.62100
F1411       F  0.09955889  0.09011189  0.21401066    -0.23000
F1412       F  0.12365757  0.08986002  0.16086511    -0.20400
F1413       F  0.16098208  0.08006026  0.20403294    -0.20100
F1414       F  0.08456835  0.91607066  0.15305303    -0.20100
F1415       F  0.03014284  0.94235545  0.16723853    -0.20400
F1416       F  0.06450358  0.91784114  0.20874360    -0.23100
C1417       C  0.98786426  0.28516958  0.04295330    -0.05900
C1418       C  0.01466976  0.28052150  0.06954128     0.00000
C1419       C  0.04118143  0.30827030  0.07215116    -0.08600
C1420       C  0.03568883  0.33816172  0.05145149    -0.06000
C1421       C  0.00885399  0.34142950  0.02633290     0.00000
C1422       C  0.98585510  0.31380063  0.02051124    -0.08500
C1423       C  0.96011696  0.31232945  0.98999613     0.61900
H1424       H  0.96751596  0.26574245  0.03930612     0.12600
H1425       H  0.05170415  0.36084899  0.05581532     0.12600
C1426       C  0.07326746  0.31219433  0.09727752     0.62100
F1427       F  0.97188156  0.28591893  0.96832912    -0.23000
F1428       F  0.95923562  0.34231361  0.97034811    -0.20400
F1429       F  0.92480519  0.30548284  0.00198217    -0.20100
F1430       F  0.09395659  0.28282048  0.10224957    -0.20100
F1431       F  0.05981966  0.32487485  0.12874144    -0.20400
F1432       F  0.09866606  0.33560807  0.08449296    -0.23100
C1433       C  0.03833306  0.26117625  0.14761282    -0.05900
C1434       C  0.04212484  0.23919701  0.11821341     0.00000
C1435       C  0.07267388  0.21455438  0.11920346    -0.08600
C1436       C  0.10084082  0.22008454  0.14313471    -0.06000
C1437       C  0.09708486  0.24353377  0.17071160     0.00000
C1438       C  0.06368061  0.26249497  0.17446497    -0.08500
C1439       C  0.05447023  0.28518731  0.20571576     0.61900
H1440       H  0.01569728  0.27955243  0.14884297     0.12600
H1441       H  0.12592456  0.20450804  0.14091149     0.12600
C1442       C  0.07697315  0.17990472  0.10092455     0.62100
F1443       F  0.01769030  0.29560077  0.20670065    -0.23000
F1444       F  0.07546950  0.31438017  0.20415489    -0.20400
F1445       F  0.06106162  0.26720373  0.23632800    -0.20100
F1446       F  0.09166365  0.15556268  0.12363665    -0.20100
F1447       F  0.10088637  0.18257840  0.07264861    -0.20400
F1448       F  0.04456756  0.16641842  0.09071638    -0.23100
C1449       C  0.97658855  0.19957045  0.05553628    -0.05900
C1450       C  0.00984170  0.21724396  0.06063069     0.00000
C1451       C  0.03863606  0.21048084  0.03467608    -0.08600
C1452       C  0.03878391  0.17877313  0.01725720    -0.06000
C1453       C  0.00892887  0.15707372  0.02045512     0.00000
C1454       C  0.97594858  0.16900548  0.03654009    -0.08500
C1455       C  0.94098404  0.14842744  0.03511350     0.61900
H1456       H  0.95125381  0.20808724  0.06833920     0.12600
H1457       H  0.06249001  0.17019487  0.00165333     0.12600
C1458       C  0.06773383  0.23584009  0.02290846     0.62100
F1459       F  0.91135673  0.16483912  0.05179737    -0.23000
F1460       F  0.94639345  0.11677703  0.05105199    -0.20400
F1461       F  0.93208804  0.14372024  0.00061978    -0.20100
F1462       F  0.05151495  0.26242549  0.00431639    -0.20100
F1463       F  0.09449469  0.22090413  0.00115820    -0.20400
F1464       F  0.08524523  0.24863698  0.05089619    -0.23100
C1465       C  0.03842052  0.30606481  0.56860217    -0.05900
C1466       C  0.00278426  0.29110790  0.57223892     0.00000
C1467       C  0.97439287  0.30790568  0.55131999    -0.08600
C1468       C  0.98117035  0.34029790  0.53621023    -0.06000
C1469       C  0.01626114  0.35375282  0.53338273     0.00000
C1470       C  0.04590308  0.33529636  0.54809488    -0.08500
C1471       C  0.08621766  0.34404157  0.54200557     0.61900
H1472       H  0.06247457  0.29376624  0.57949860     0.12600
H1473       H  0.95865092  0.35466155  0.52432133     0.12600
C1474       C  0.93894974  0.29339651  0.53776848     0.62100
F1475       F  0.10474974  0.31561788  0.52835220    -0.23000
F1476       F  0.10156805  0.35200890  0.57351777    -0.20400
F1477       F  0.09152695  0.37100799  0.51880564    -0.20100
F1478       F  0.90872841  0.30879288  0.55439601    -0.20100
F1479       F  0.93749788  0.25876473  0.54089579    -0.20400
F1480       F  0.93631436  0.30020677  0.50225595    -0.23100
C1481       C  0.98876993  0.19549018  0.60194820    -0.05900
C1482       C  0.99470573  0.22327008  0.57793498     0.00000
C1483       C  0.99589830  0.21494783  0.54082855    -0.08600
C1484       C  0.98710913  0.18148487  0.53148401    -0.06000
C1485       C  0.98184267  0.15525018  0.55578141     0.00000
C1486       C  0.98202190  0.16198063  0.59159924    -0.08500
C1487       C  0.97552838  0.13384511  0.61871875     0.61900
H1488       H  0.98935200  0.20027154  0.62967030     0.12600
H1489       H  0.98700685  0.17468223  0.50400958     0.12600
C1490       C  0.00768736  0.23556360  0.50801025     0.62100
F1491       F  0.97860594  0.14563172  0.65247668    -0.23000
F1492       F  0.00106777  0.10732231  0.61385129    -0.20400
F1493       F  0.94035127  0.12141977  0.61546771    -0.20100
F1494       F  0.02147017  0.26735565  0.51283607    -0.20100
F1495       F  0.97810157  0.23882587  0.48593520    -0.20400
F1496       F  0.03540870  0.21730173  0.49030925    -0.23100
C1497       C  0.08908465  0.22241842  0.64457278    -0.05900
C1498       C  0.09293190  0.24600364  0.67135140     0.00000
C1499       C  0.06834965  0.27509226  0.67225289    -0.08600
C1500       C  0.04179748  0.27936646  0.64594938    -0.06000
C1501       C  0.03562844  0.25425122  0.62024138     0.00000
C1502       C  0.06431215  0.22797881  0.61705921    -0.08500
C1503       C  0.07683135  0.21162473  0.58264589     0.61900
H1504       H  0.10934283  0.20159582  0.64254134     0.12600
H1505       H  0.02353525  0.30175550  0.64700699     0.12600
C1506       C  0.06713669  0.30162233  0.70117894     0.62100
F1507       F  0.11488045  0.20715679  0.58097440    -0.23000
F1508       F  0.06820854  0.23252334  0.55474587    -0.20400
F1509       F  0.06161226  0.17970872  0.57922233    -0.20100
F1510       F  0.07712976  0.33316865  0.68752325    -0.20100
F1511       F  0.08965979  0.29313306  0.72867579    -0.20400
F1512       F  0.03154413  0.30470136  0.71473812    -0.23100
C1513       C  0.27341667  0.33729806  0.60157694    -0.05900
C1514       C  0.25994255  0.30436401  0.60153296     0.00000
C1515       C  0.24499417  0.29087994  0.57144201    -0.08600
C1516       C  0.24571138  0.31095311  0.54096782    -0.06000
C1517       C  0.25741976  0.34559652  0.54020469     0.00000
C1518       C  0.26971200  0.35947553  0.57301493    -0.08500
C1519       C  0.27932587  0.39656561  0.58169504     0.61900
H1520       H  0.28452570  0.34667974  0.62569898     0.12600
H1521       H  0.23742288  0.29864835  0.51762062     0.12600
C1522       C  0.22799047  0.25559039  0.57186784     0.62100
F1523       F  0.26484872  0.40488822  0.61423121    -0.23000
F1524       F  0.26542298  0.42121292  0.55963120    -0.20400
F1525       F  0.31713761  0.39944371  0.58314531    -0.20100
F1526       F  0.21421686  0.24724328  0.53971455    -0.20100
F1527       F  0.19918190  0.25477074  0.59624828    -0.20400
F1528       F  0.25434169  0.23104130  0.58065448    -0.23100
C1529       C  0.20234232  0.18352682  0.92067406    -0.05900
C1530       C  0.22721968  0.20859185  0.91159519     0.00000
C1531       C  0.25109575  0.22144259  0.93595644    -0.08600
C1532       C  0.25357231  0.20420156  0.96794740    -0.06000
C1533       C  0.23197238  0.17509536  0.97679557     0.00000
C1534       C  0.20147223  0.16814257  0.95379178    -0.08500
C1535       C  0.16577856  0.14796971  0.95888439     0.61900
H1536       H  0.18274801  0.17610435  0.90122314     0.12600
H1537       H  0.27507358  0.21192893  0.98502603     0.12600
C1538       C  0.27526937  0.25178389  0.92707175     0.62100
F1539       F  0.13614462  0.16896317  0.94968371    -0.23000
F1540       F  0.15724944  0.13649996  0.99171021    -0.20400
F1541       F  0.16694135  0.12014921  0.93672354    -0.20100
F1542       F  0.25349395  0.27920112  0.91603740    -0.20100
F1543       F  0.30009060  0.24296645  0.90055148    -0.20400
F1544       F  0.29486501  0.26219652  0.95551081    -0.23100
C1545       C  0.52655750  0.29089030  0.92820475    -0.05900
C1546       C  0.49781077  0.28406012  0.90482009     0.00000
C1547       C  0.47368305  0.31366141  0.89711301    -0.08600
C1548       C  0.47217819  0.34091275  0.92050142    -0.06000
C1549       C  0.50085812  0.34715318  0.94240677     0.00000
C1550       C  0.52898586  0.32221337  0.94640156    -0.08500
C1551       C  0.55996746  0.32816107  0.97122250     0.61900
H1552       H  0.54780675  0.27188957  0.93185709     0.12600
H1553       H  0.45115617  0.36101095  0.91756248     0.12600
C1554       C  0.45261604  0.32395278  0.86406572     0.62100
F1555       F  0.58294992  0.29953532  0.97408446    -0.23000
F1556       F  0.54528469  0.33552287  0.00407504    -0.20400
F1557       F  0.58078720  0.35549291  0.95949446    -0.20100
F1558       F  0.41509789  0.32200528  0.87069712    -0.20100
F1559       F  0.46207296  0.30632948  0.83457754    -0.20400
F1560       F  0.45986546  0.35783879  0.85519824    -0.23100
C1561       C  0.49403961  0.21737734  0.95150013    -0.05900
C1562       C  0.49411036  0.21428733  0.91421322     0.00000
C1563       C  0.49287862  0.17964826  0.90095480    -0.08600
C1564       C  0.49669496  0.15191296  0.92425118    -0.06000
C1565       C  0.49521529  0.15497506  0.96056041     0.00000
C1566       C  0.49382173  0.18836730  0.97469293    -0.08500
C1567       C  0.49213903  0.19323955  0.01385312     0.61900
H1568       H  0.49470492  0.24251747  0.96280391     0.12600
H1569       H  0.49924748  0.12623560  0.91398381     0.12600
C1570       C  0.48456823  0.16960755  0.86326141     0.62100
F1571       F  0.48904912  0.22757749  0.02265460    -0.23000
F1572       F  0.52395201  0.17970852  0.02823615    -0.20400
F1573       F  0.46192694  0.17656886  0.02811095    -0.20100
F1574       F  0.50726295  0.18548397  0.83908180    -0.20100
F1575       F  0.44795545  0.17699076  0.85671495    -0.20400
F1576       F  0.48941312  0.13477032  0.85739791    -0.23100
C1577       C  0.38983665  0.25409261  0.86849913    -0.05900
C1578       C  0.38970875  0.25383530  0.83233600     0.00000
C1579       C  0.42289976  0.24585581  0.81383014    -0.08600
C1580       C  0.45614617  0.24170850  0.83238226    -0.06000
C1581       C  0.45768289  0.24532816  0.86933184     0.00000
C1582       C  0.42212167  0.24890879  0.88779135    -0.08500
C1583       C  0.41556211  0.24554380  0.92739256     0.61900
H1584       H  0.36341080  0.25798016  0.88163465     0.12600
H1585       H  0.48115270  0.23721806  0.81736773     0.12600
C1586       C  0.42313928  0.24267932  0.77442348     0.62100
F1587       F  0.37952417  0.25357600  0.93768088    -0.23000
F1588       F  0.43726637  0.26735107  0.94553729    -0.20400
F1589       F  0.42165451  0.21186381  0.93763283    -0.20100
F1590       F  0.41191325  0.27362737  0.75972178    -0.20100
F1591       F  0.39924223  0.21737973  0.76501022    -0.20400
F1592       F  0.45787885  0.23417566  0.76093051    -0.23100
C1593       C  0.56043046  0.00561835  0.29133428    -0.05900
C1594       C  0.59923033  0.01054978  0.29119467     0.00000
C1595       C  0.61428654  0.01955614  0.32467157    -0.08600
C1596       C  0.59095505  0.02006429  0.35488136    -0.06000
C1597       C  0.55314563  0.01292907  0.35498739     0.00000
C1598       C  0.53750127  0.00591809  0.32221233    -0.08500
C1599       C  0.49651648  0.99993247  0.31928484     0.61900
H1600       H  0.54747896  0.00191963  0.26684884     0.12600
H1601       H  0.60265732  0.02648336  0.37956814     0.12600
C1602       C  0.65399005  0.03104441  0.33054740     0.62100
F1603       F  0.48639321  0.99600100  0.28494141    -0.23000
F1604       F  0.47676480  0.02767010  0.33290195    -0.20400
F1605       F  0.48706684  0.97041077  0.33740656    -0.20100
F1606       F  0.65714043  0.06539310  0.32192589    -0.20100
F1607       F  0.67976028  0.01190336  0.31175706    -0.20400
F1608       F  0.66367159  0.02748746  0.36521250    -0.23100
C1609       C  0.55889861  0.98639597  0.17414743    -0.05900
C1610       C  0.56746976  0.01290877  0.15011277     0.00000
C1611       C  0.59494627  0.03580684  0.15940068    -0.08600
C1612       C  0.61222741  0.03128701  0.19174125    -0.06000
C1613       C  0.60171239  0.00715254  0.21888293     0.00000
C1614       C  0.57583627  0.98221641  0.20726762    -0.08500
C1615       C  0.56585284  0.94910984  0.22602982     0.61900
H1616       H  0.53919150  0.96756274  0.16632726     0.12600
H1617       H  0.63609292  0.04664954  0.19436682     0.12600
C1618       C  0.60773818  0.06428404  0.13461303     0.62100
F1619       F  0.57536325  0.92161179  0.20481548    -0.23000
F1620       F  0.52819070  0.94883348  0.23281777    -0.20400
F1621       F  0.58338932  0.94419932  0.25682575    -0.20100
F1622       F  0.57903668  0.08756076  0.12946119    -0.20100
F1623       F  0.61923284  0.05045542  0.10294806    -0.20400
F1624       F  0.63687680  0.08234133  0.14750562    -0.23100
C1625       C  0.64455821  0.10692163  0.24772194    -0.05900
C1626       C  0.68251551  0.10662976  0.24130190     0.00000
C1627       C  0.70210438  0.07501179  0.24176737    -0.08600
C1628       C  0.68280559  0.04437562  0.24830625    -0.06000
C1629       C  0.64398790  0.04363276  0.25464325     0.00000
C1630       C  0.62440795  0.07680579  0.25428788    -0.08500
C1631       C  0.58276533  0.08256397  0.26135058     0.61900
H1632       H  0.63087941  0.13187140  0.24865197     0.12600
H1633       H  0.69875921  0.02082572  0.24877678     0.12600
C1634       C  0.74358227  0.07385783  0.23570596     0.62100
F1635       F  0.57121888  0.11566872  0.25287248    -0.23000
F1636       F  0.57445577  0.07797095  0.29642767    -0.20400
F1637       F  0.56169496  0.06131246  0.24186110    -0.20100
F1638       F  0.76036754  0.09222813  0.26137286    -0.20100
F1639       F  0.75211384  0.08820388  0.20340989    -0.20400
F1640       F  0.75786229  0.04061544  0.23633013    -0.23100
C1641       C  0.59080224  0.27656858  0.33329026    -0.05900
C1642       C  0.60578510  0.24418172  0.32513736     0.00000
C1643       C  0.58569192  0.21492978  0.33309410    -0.08600
C1644       C  0.55429615  0.21886094  0.35452257    -0.06000
C1645       C  0.53579007  0.25120190  0.36045727     0.00000
C1646       C  0.55491323  0.28113897  0.34713944    -0.08500
C1647       C  0.54132610  0.31856174  0.34523483     0.61900
H1648       H  0.60661126  0.29911269  0.32640699     0.12600
H1649       H  0.54472283  0.19541291  0.36548420     0.12600
C1650       C  0.59448190  0.18063187  0.31562483     0.62100
F1651       F  0.54842048  0.33153295  0.31198991    -0.23000
F1652       F  0.56089350  0.33807447  0.36802685    -0.20400
F1653       F  0.50420917  0.32340236  0.35185097    -0.20100
F1654       F  0.62755223  0.16667912  0.32642144    -0.20100
F1655       F  0.59628016  0.18564188  0.27979392    -0.20400
F1656       F  0.56760360  0.15681048  0.32282435    -0.23100
C1657       C  0.95267486  0.27551438  0.11797562    -0.05900
C1658       C  0.97381064  0.24437281  0.11467788     0.00000
C1659       C  0.96277632  0.21660284  0.13850067    -0.08600
C1660       C  0.93231239  0.22203531  0.16159150    -0.06000
C1661       C  0.91322850  0.25330487  0.16515530     0.00000
C1662       C  0.92387259  0.28088443  0.14288009    -0.08500
C1663       C  0.90576289  0.31646639  0.14518624     0.61900
H1664       H  0.95996217  0.29751218  0.10251525     0.12600
H1665       H  0.92296585  0.20122457  0.17812118     0.12600
C1666       C  0.98176342  0.18108126  0.14280424     0.62100
F1667       F  0.92405675  0.34061375  0.12486930    -0.23000
F1668       F  0.90586968  0.32786490  0.17927229    -0.20400
F1669       F  0.87002121  0.31517450  0.13360384    -0.20100
F1670       F  0.01728221  0.18404880  0.15360380    -0.20100
F1671       F  0.98067541  0.16234995  0.11275393    -0.20400
F1672       F  0.96488034  0.16080740  0.16821874    -0.23100
C1673       C  0.86524930  0.49973872  0.32533658    -0.05900
C1674       C  0.88493242  0.50401030  0.29270781     0.00000
C1675       C  0.92507753  0.50014789  0.29524944    -0.08600
C1676       C  0.94087961  0.49682642  0.32908329    -0.06000
C1677       C  0.92002546  0.49391142  0.36018610     0.00000
C1678       C  0.88145453  0.49496875  0.35815359    -0.08500
C1679       C  0.85725521  0.49058410  0.39084037     0.61900
H1680       H  0.83574312  0.49951575  0.32497590     0.12600
H1681       H  0.97050845  0.49668265  0.33189990     0.12600
C1682       C  0.95341160  0.49812051  0.26474243     0.62100
F1683       F  0.82009586  0.49016874  0.38335895    -0.23000
F1684       F  0.86261197  0.51732932  0.41348672    -0.20400
F1685       F  0.86636472  0.45987966  0.40727863    -0.20100
F1686       F  0.95848915  0.53003391  0.25001393    -0.20100
F1687       F  0.94392455  0.47513450  0.23964306    -0.20400
F1688       F  0.98779072  0.48688378  0.27569475    -0.23100
C1689       C  0.87872013  0.47583722  0.19867253    -0.05900
C1690       C  0.88070263  0.50439847  0.22152036     0.00000
C1691       C  0.89880608  0.53401100  0.20646498    -0.08600
C1692       C  0.91439182  0.53243570  0.17176780    -0.06000
C1693       C  0.91203874  0.50350697  0.15007849     0.00000
C1694       C  0.89232996  0.47502350  0.16389270    -0.08500
C1695       C  0.88265381  0.44417836  0.14177488     0.61900
H1696       H  0.86354002  0.45382870  0.20663547     0.12600
H1697       H  0.92794841  0.55476966  0.16090625     0.12600
C1698       C  0.89938527  0.56914033  0.22373417     0.62100
F1699       F  0.85778512  0.42263053  0.15853324    -0.23000
F1700       F  0.91395348  0.42463272  0.13427797    -0.20400
F1701       F  0.86661156  0.45540435  0.11119796    -0.20100
F1702       F  0.93092270  0.58649754  0.21369370    -0.20100
F1703       F  0.89911501  0.56706124  0.25967529    -0.20400
F1704       F  0.86927560  0.58860067  0.21327359    -0.23100
C1705       C  0.86794616  0.43898175  0.26806952    -0.05900
C1706       C  0.84100170  0.46620386  0.26500152     0.00000
C1707       C  0.80300858  0.45635427  0.27185187    -0.08600
C1708       C  0.79527885  0.42065501  0.27392866    -0.06000
C1709       C  0.82298079  0.39502215  0.27418297     0.00000
C1710       C  0.85986270  0.40437037  0.27279908    -0.08500
C1711       C  0.89074462  0.37749830  0.27529082     0.61900
H1712       H  0.89655047  0.44488631  0.26532039     0.12600
H1713       H  0.76703440  0.41214915  0.27544222     0.12600
C1714       C  0.76981389  0.48055615  0.27931526     0.62100
F1715       F  0.92520672  0.39208957  0.27583055    -0.23000
F1716       F  0.89001561  0.35593828  0.24689382    -0.20400
F1717       F  0.88609482  0.35833381  0.30564939    -0.20100
F1718       F  0.75693539  0.49549497  0.24919225    -0.20100
F1719       F  0.77794063  0.50557039  0.30280764    -0.20400
F1720       F  0.74044722  0.46299803  0.29424244    -0.23100
C1721       C  0.25312273  0.80156963  0.55615229    -0.05900
C1722       C  0.25122948  0.82068022  0.58695799     0.00000
C1723       C  0.25299136  0.85647755  0.58506427    -0.08600
C1724       C  0.25871766  0.87182169  0.55267794    -0.06000
C1725       C  0.25624597  0.85436115  0.52049375     0.00000
C1726       C  0.25746160  0.81727666  0.52268842    -0.08500
C1727       C  0.26614788  0.79195150  0.49337219     0.61900
H1728       H  0.25250348  0.77382061  0.55848585     0.12600
H1729       H  0.26205597  0.89894230  0.55259603     0.12600
C1730       C  0.24594028  0.87914168  0.61675096     0.62100
F1731       F  0.29072842  0.76689285  0.50500049    -0.23000
F1732       F  0.28264009  0.80621195  0.46417103    -0.20400
F1733       F  0.23418725  0.77595467  0.48428328    -0.20100
F1734       F  0.27682686  0.87871392  0.63715771    -0.20100
F1735       F  0.21590025  0.86759334  0.63614887    -0.20400
F1736       F  0.23792635  0.91279505  0.60714632    -0.23100
C1737       C  0.18572785  0.88457590  0.52268867    -0.05900
C1738       C  0.21042100  0.89937166  0.49696551     0.00000
C1739       C  0.19589362  0.92912538  0.47897939    -0.08600
C1740       C  0.16442191  0.94621907  0.49341453    -0.06000
C1741       C  0.14141685  0.93135578  0.51916877     0.00000
C1742       C  0.15197570  0.89973611  0.53378655    -0.08500
C1743       C  0.12691014  0.88141460  0.55996380     0.61900
H1744       H  0.19141937  0.85937054  0.53322602     0.12600
H1745       H  0.15483595  0.97020106  0.48190938     0.12600
C1746       C  0.20950306  0.94196160  0.44333325     0.62100
F1747       F  0.14200911  0.85035203  0.57109237    -0.23000
F1748       F  0.09345314  0.87499950  0.54499520    -0.20400
F1749       F  0.12095310  0.90186699  0.58894057    -0.20100
F1750       F  0.20800534  0.91608085  0.41920735    -0.20100
F1751       F  0.24452940  0.95402110  0.44475576    -0.20400
F1752       F  0.18781105  0.96881325  0.43079429    -0.23100
C1753       C  0.31776332  0.88078741  0.48250457    -0.05900
C1754       C  0.28522467  0.90120700  0.48939191     0.00000
C1755       C  0.29107611  0.93645138  0.49977744    -0.08600
C1756       C  0.32659403  0.94981853  0.49404267    -0.06000
C1757       C  0.35729758  0.92895011  0.48586358     0.00000
C1758       C  0.35336842  0.89375235  0.48169105    -0.08500
C1759       C  0.38704796  0.87013634  0.47719933     0.61900
H1760       H  0.31523965  0.85387578  0.47776238     0.12600
H1761       H  0.33135073  0.97662337  0.49960115     0.12600
C1762       C  0.26557924  0.96154470  0.52027405     0.62100
F1763       F  0.37757033  0.83628163  0.47279776    -0.23000
F1764       F  0.40855073  0.87182213  0.50648632    -0.20400
F1765       F  0.40768173  0.88033329  0.44820385    -0.20100
F1766       F  0.28473917  0.97424258  0.54806619    -0.20100
F1767       F  0.23408071  0.94817448  0.53487504    -0.20400
F1768       F  0.25593914  0.98913758  0.49916084    -0.23100
C1769       C  0.26015154  0.84213011  0.39284891    -0.05900
C1770       C  0.23116682  0.81950772  0.39284223     0.00000
C1771       C  0.20649027  0.81848411  0.42172373    -0.08600
C1772       C  0.21327121  0.83950100  0.45071424    -0.06000
C1773       C  0.24360350  0.86219313  0.45206056     0.00000
C1774       C  0.26556724  0.86563533  0.41969176    -0.08500
C1775       C  0.29410049  0.89212524  0.40735146     0.61900
H1776       H  0.27814171  0.84270207  0.36969231     0.12600
H1777       H  0.19554737  0.83682892  0.47359278     0.12600
C1778       C  0.17495186  0.79348164  0.42293136     0.62100
F1779       F  0.28483814  0.90434138  0.37448532    -0.23000
F1780       F  0.32841666  0.87600963  0.40443248    -0.20400
F1781       F  0.29736678  0.92079434  0.42697319    -0.20100
F1782       F  0.18886058  0.76032598  0.41937064    -0.20100
F1783       F  0.15120977  0.80063141  0.39602838    -0.20400
F1784       F  0.15483955  0.79527756  0.45411253    -0.23100
C1785       C  0.32898514  0.60484836  0.25122293    -0.05900
C1786       C  0.29174908  0.59829600  0.24626922     0.00000
C1787       C  0.28168627  0.56421389  0.24072025    -0.08600
C1788       C  0.30952243  0.53793958  0.24068566    -0.06000
C1789       C  0.34803266  0.54384914  0.24576421     0.00000
C1790       C  0.35760141  0.57992693  0.24757524    -0.08500
C1791       C  0.39647183  0.59493506  0.24379473     0.61900
H1792       H  0.33567512  0.63132503  0.25594451     0.12600
H1793       H  0.30062583  0.51252575  0.23494052     0.12600
C1794       C  0.24201365  0.55584567  0.23342246     0.62100
F1795       F  0.39566926  0.63049646  0.24198498    -0.23000
F1796       F  0.41377960  0.58463600  0.21321150    -0.20400
F1797       F  0.41775482  0.58672615  0.27188410    -0.20100
F1798       F  0.23231424  0.57017483  0.20166384    -0.20100
F1799       F  0.21892513  0.56905522  0.25948048    -0.20400
F1800       F  0.23673949  0.52079153  0.23218785    -0.23100
C1801       C  0.15906909  0.95325947  0.28664627    -0.05900
C1802       C  0.16286585  0.97737298  0.25856603     0.00000
C1803       C  0.18566216  0.96513248  0.22927751    -0.08600
C1804       C  0.19980721  0.93076910  0.22905540    -0.06000
C1805       C  0.19614723  0.90843044  0.25779781     0.00000
C1806       C  0.17791835  0.92132941  0.28817691    -0.08500
C1807       C  0.17830010  0.90214821  0.32303255     0.61900
H1808       H  0.14120237  0.95854231  0.30870898     0.12600
H1809       H  0.21440090  0.92131733  0.20590380     0.12600
C1810       C  0.19716288  0.98619869  0.19740159     0.62100
F1811       F  0.17283417  0.92452026  0.35064912    -0.23000
F1812       F  0.21205845  0.88568263  0.32764796    -0.20400
F1813       F  0.15053663  0.87842133  0.32451827    -0.20100
F1814       F  0.23461716  0.98140591  0.19067362    -0.20100
F1815       F  0.19122828  0.02072478  0.20156138    -0.20400
F1816       F  0.17830833  0.97544586  0.16869953    -0.23100
C1817       C  0.06147865  0.75806935  0.31672068    -0.05900
C1818       C  0.08390382  0.72929251  0.32444349     0.00000
C1819       C  0.06882662  0.70363983  0.34630142    -0.08600
C1820       C  0.03467124  0.71073563  0.36385259    -0.06000
C1821       C  0.01696555  0.74410288  0.36367286     0.00000
C1822       C  0.02742965  0.76518821  0.33409289    -0.08500
C1823       C  0.00345254  0.79379895  0.31852101     0.61900
H1824       H  0.07120301  0.77527261  0.29637015     0.12600
H1825       H  0.02313660  0.69020975  0.37937544     0.12600
C1826       C  0.08920939  0.66975451  0.35233397     0.62100
F1827       F  0.02157081  0.81146827  0.29186060    -0.23000
F1828       F  0.99316115  0.81759546  0.34299002    -0.20400
F1829       F  0.97250746  0.78009598  0.30436003    -0.20100
F1830       F  0.12355732  0.67575363  0.36565862    -0.20100
F1831       F  0.09344012  0.65246752  0.32107391    -0.20400
F1832       F  0.07045541  0.64871854  0.37576917    -0.23100
C1833       C  0.01822827  0.68453102  0.46455538    -0.05900
C1834       C  0.98625535  0.66569878  0.46880506     0.00000
C1835       C  0.95395616  0.67751739  0.45212137    -0.08600
C1836       C  0.95625360  0.70396492  0.42708519    -0.06000
C1837       C  0.98807750  0.72397861  0.42201785     0.00000
C1838       C  0.01996397  0.71431614  0.44307492    -0.08500
C1839       C  0.05571003  0.73465285  0.44578680     0.61900
H1840       H  0.04228343  0.67509772  0.47813376     0.12600
H1841       H  0.93135973  0.71015105  0.41337952     0.12600
C1842       C  0.91619919  0.66280449  0.46009369     0.62100
F1843       F  0.04935190  0.76300543  0.46658929    -0.23000
F1844       F  0.06995695  0.74496058  0.41387966    -0.20400
F1845       F  0.08356208  0.71535634  0.46117083    -0.20100
F1846       F  0.91531754  0.64414644  0.49105559    -0.20100
F1847       F  0.90652257  0.64196012  0.43298393    -0.20400
F1848       F  0.89025438  0.68923163  0.46344768    -0.23100
C1849       C  0.02886971  0.80647051  0.40581661    -0.05900
C1850       C  0.99849317  0.78617168  0.41667385     0.00000
C1851       C  0.97972397  0.79595833  0.44910714    -0.08600
C1852       C  0.98792433  0.82772423  0.46363548    -0.06000
C1853       C  0.01125545  0.85113561  0.44684704     0.00000
C1854       C  0.03520052  0.83907207  0.41966544    -0.08500
C1855       C  0.06637193  0.86037631  0.40418151     0.61900
H1856       H  0.04695962  0.79804594  0.38495471     0.12600
H1857       H  0.97392218  0.83574417  0.48754708     0.12600
C1858       C  0.95042814  0.77517237  0.46936234     0.62100
F1859       F  0.08891189  0.84163745  0.38135609    -0.23000
F1860       F  0.08822801  0.87177136  0.43062468    -0.20400
F1861       F  0.05201715  0.88810513  0.38578394    -0.20100
F1862       F  0.96691464  0.74819943  0.48714030    -0.20100
F1863       F  0.92391651  0.76326773  0.44768632    -0.20400
F1864       F  0.93150927  0.79467829  0.49430851    -0.23100
C1865       C  0.70734812  0.17397072  0.44809381    -0.05900
C1866       C  0.73337136  0.17811761  0.47456631     0.00000
C1867       C  0.74617799  0.21293302  0.47686143    -0.08600
C1868       C  0.74945830  0.23256060  0.44524024    -0.06000
C1869       C  0.72879325  0.22385296  0.41621993     0.00000
C1870       C  0.70152044  0.19892409  0.42231363    -0.08500
C1871       C  0.66589247  0.19817523  0.40287927     0.61900
H1872       H  0.69068635  0.15138187  0.44698975     0.12600
H1873       H  0.76567021  0.25559564  0.44424178     0.12600
C1874       C  0.74378720  0.23420433  0.50989679     0.62100
F1875       F  0.63665726  0.19526922  0.42662558    -0.23000
F1876       F  0.66642413  0.17016644  0.38114094    -0.20400
F1877       F  0.66024206  0.22804728  0.38381331    -0.20100
F1878       F  0.72443188  0.26457704  0.50341982    -0.20100
F1879       F  0.77864056  0.24254733  0.52023555    -0.20400
F1880       F  0.72479533  0.21791833  0.53673093    -0.23100
C1881       C  0.82907753  0.10074521  0.45017310    -0.05900
C1882       C  0.83639433  0.07459719  0.47448124     0.00000
C1883       C  0.80879852  0.06732104  0.50007804    -0.08600
C1884       C  0.77916536  0.09056929  0.50488125    -0.06000
C1885       C  0.77292452  0.11985083  0.48339723     0.00000
C1886       C  0.79689886  0.12234960  0.45225620    -0.08500
C1887       C  0.79079241  0.14543841  0.42010836     0.61900
H1888       H  0.85004819  0.10509503  0.43008071     0.12600
H1889       H  0.76052267  0.08571169  0.52679641     0.12600
C1890       C  0.80857385  0.03548915  0.52329776     0.62100
F1891       F  0.81537581  0.13748779  0.39293657    -0.23000
F1892       F  0.79597858  0.17927445  0.42756240    -0.20400
F1893       F  0.75634947  0.14126245  0.40680005    -0.20100
F1894       F  0.81022965  0.04513102  0.55784489    -0.20100
F1895       F  0.83710395  0.01249290  0.51567255    -0.20400
F1896       F  0.77589328  0.01855486  0.51903414    -0.23100
C1897       C  0.67464152  0.14622663  0.52308167    -0.05900
C1898       C  0.70328413  0.12739764  0.50502323     0.00000
C1899       C  0.69416635  0.09307152  0.49586290    -0.08600
C1900       C  0.66552061  0.07657715  0.51451622    -0.06000
C1901       C  0.63785617  0.09497895  0.53309170     0.00000
C1902       C  0.64178384  0.13089722  0.53605506    -0.08500
C1903       C  0.61080073  0.15296783  0.55172014     0.61900
H1904       H  0.67863315  0.17318068  0.52759802     0.12600
H1905       H  0.66053294  0.04985533  0.50876191     0.12600
C1906       C  0.70613130  0.07487584  0.46237864     0.62100
F1907       F  0.62029243  0.18713832  0.55344000    -0.23000
F1908       F  0.60226070  0.14150109  0.58519038    -0.20400
F1909       F  0.57990259  0.15090404  0.53144348    -0.20100
F1910       F  0.72586347  0.04516090  0.47003205    -0.20100
F1911       F  0.72633969  0.09479274  0.43978273    -0.20400
F1912       F  0.67508721  0.06609641  0.44446307    -0.23100
C1913       C  0.17561652  0.60325441  0.73614197    -0.05900
C1914       C  0.21260742  0.60305673  0.74512236     0.00000
C1915       C  0.22944945  0.57150904  0.75449321    -0.08600
C1916       C  0.20805424  0.54128483  0.75482584    -0.06000
C1917       C  0.16922073  0.54143211  0.74871652     0.00000
C1918       C  0.15282411  0.57479707  0.74078561    -0.08500
C1919       C  0.11182553  0.58389290  0.73697036     0.61900
H1920       H  0.16346690  0.62736184  0.72740411     0.12600
H1921       H  0.22232316  0.51729186  0.75971687     0.12600
C1922       C  0.26966981  0.56999360  0.76425045     0.62100
F1923       F  0.10362691  0.61492329  0.75302564    -0.23000
F1924       F  0.08828076  0.56085892  0.75235486    -0.20400
F1925       F  0.10402068  0.58741030  0.70193083    -0.20100
F1926       F  0.27444662  0.58935791  0.79380700    -0.20100
F1927       F  0.29117636  0.58304703  0.73710155    -0.20400
F1928       F  0.28181409  0.53672530  0.77110398    -0.23100
C1929       C  0.21137482  0.42620881  0.77542144    -0.05900
C1930       C  0.21522302  0.40851082  0.74391707     0.00000
C1931       C  0.20009182  0.42399877  0.71409001    -0.08600
C1932       C  0.17679849  0.45295942  0.71755077    -0.06000
C1933       C  0.17309048  0.47288398  0.74839263     0.00000
C1934       C  0.19288694  0.45879929  0.77822530    -0.08500
C1935       C  0.19368549  0.47383530  0.81484658     0.61900
H1936       H  0.22233325  0.41381836  0.79855349     0.12600
H1937       H  0.16222432  0.45980871  0.69435956     0.12600
C1938       C  0.20849823  0.41176351  0.67736872     0.62100
F1939       F  0.16667455  0.45891125  0.83569496    -0.23000
F1940       F  0.18936034  0.50884618  0.81563947    -0.20400
F1941       F  0.22749968  0.46665105  0.82966390    -0.20100
F1942       F  0.17705160  0.39843008  0.66366888    -0.20100
F1943       F  0.23674936  0.38739624  0.67571822    -0.20400
F1944       F  0.21938368  0.43960304  0.65723456    -0.23100
C1945       C  0.08596032  0.50749655  0.71054040    -0.05900
C1946       C  0.12512775  0.51016403  0.71129560     0.00000
C1947       C  0.14259898  0.51957963  0.67774186    -0.08600
C1948       C  0.12082693  0.52617453  0.64806943    -0.06000
C1949       C  0.08270629  0.52323263  0.64827270     0.00000
C1950       C  0.06480976  0.51411105  0.68017895    -0.08500
C1951       C  0.02305219  0.51321437  0.68239152     0.61900
H1952       H  0.07116737  0.50144687  0.73448377     0.12600
H1953       H  0.13421206  0.53276189  0.62328481     0.12600
C1954       C  0.18375282  0.52341826  0.66908680     0.62100
F1955       F  0.01017297  0.50497630  0.71571905    -0.23000
F1956       F  0.01028153  0.48916410  0.65958390    -0.20400
F1957       F  0.00874760  0.54523780  0.67348794    -0.20100
F1958       F  0.19282916  0.50570681  0.63874892    -0.20100
F1959       F  0.20725470  0.51102786  0.69384383    -0.20400
F1960       F  0.19081806  0.55777418  0.66323952    -0.23100
C1961       C  0.12049287  0.52954704  0.80809583    -0.05900
C1962       C  0.12003782  0.50320515  0.78258108     0.00000
C1963       C  0.09912848  0.47339754  0.79356739    -0.08600
C1964       C  0.08226190  0.47168092  0.82783446    -0.06000
C1965       C  0.08451615  0.49778637  0.85274509     0.00000
C1966       C  0.10547139  0.52694184  0.84246238    -0.08500
C1967       C  0.11383015  0.55553940  0.86769600     0.61900
H1968       H  0.13481573  0.55273269  0.80218994     0.12600
H1969       H  0.06679028  0.44914426  0.83528994     0.12600
C1970       C  0.09356987  0.44136848  0.77213517     0.62100
F1971       F  0.14168201  0.57656149  0.85526734    -0.23000
F1972       F  0.12536991  0.54173196  0.89914867    -0.20400
F1973       F  0.08258326  0.57592644  0.87276821    -0.20100
F1974       F  0.10456248  0.44418008  0.73771452    -0.20100
F1975       F  0.05643230  0.43370829  0.77271856    -0.20400
F1976       F  0.11288301  0.41419242  0.78704831    -0.23100
C1977       C  0.24800954  0.69064647  0.95297968    -0.05900
C1978       C  0.23999290  0.65502262  0.95238763     0.00000
C1979       C  0.23079063  0.64074321  0.91858855    -0.08600
C1980       C  0.22868032  0.66300749  0.88998030    -0.06000
C1981       C  0.23525248  0.69774291  0.89196591     0.00000
C1982       C  0.24461745  0.71234290  0.92383115    -0.08500
C1983       C  0.25065715  0.75066028  0.92734449     0.61900
H1984       H  0.25883208  0.70195168  0.97598906     0.12600
H1985       H  0.22286808  0.65321916  0.86442418     0.12600
C1986       C  0.22346835  0.60304212  0.90952503     0.62100
F1987       F  0.25128223  0.76041707  0.96199036    -0.23000
F1988       F  0.22229580  0.76897988  0.91170386    -0.20400
F1989       F  0.28395392  0.75935613  0.91162140    -0.20100
F1990       F  0.21629422  0.59836411  0.87450668    -0.20100
F1991       F  0.19279719  0.59115161  0.92695474    -0.20400
F1992       F  0.25377964  0.58245791  0.91565986    -0.23100
C1993       C  0.17342556  0.63204785  0.97928468    -0.05900
C1994       C  0.20451249  0.61814755  0.99699468     0.00000
C1995       C  0.19566671  0.59558508  0.02575835    -0.08600
C1996       C  0.16153053  0.57899079  0.02537418    -0.06000
C1997       C  0.13495748  0.58644696  0.99992756     0.00000
C1998       C  0.13979394  0.61562988  0.97843104    -0.08500
C1999       C  0.11079474  0.62926108  0.95365145     0.61900
H2000       H  0.17559996  0.65519809  0.96390755     0.12600
H2001       H  0.15571685  0.55946729  0.04489208     0.12600
C2002       C  0.21931854  0.58964584  0.05772373     0.62100
F2003       F  0.11950070  0.66088657  0.93919056    -0.23000
F2004       F  0.07747277  0.63279970  0.97135047    -0.20400
F2005       F  0.10756027  0.60684742  0.92644907    -0.20100
F2006       F  0.21731190  0.61837633  0.07842712    -0.20100
F2007       F  0.25544141  0.58257888  0.04865602    -0.20400
F2008       F  0.20717475  0.56235535  0.07812010    -0.23100
C2009       C  0.30772903  0.62388976  0.96250473    -0.05900
C2010       C  0.27633246  0.60729637  0.97775049     0.00000
C2011       C  0.27897542  0.56994916  0.97904451    -0.08600
C2012       C  0.31397812  0.55427974  0.97339919    -0.06000
C2013       C  0.34429260  0.57192734  0.95972184     0.00000
C2014       C  0.34078461  0.60715206  0.95260711    -0.08500
C2015       C  0.37277838  0.62785416  0.93775195     0.61900
H2016       H  0.30708477  0.65142349  0.95952584     0.12600
H2017       H  0.31740177  0.52685794  0.97801906     0.12600
C2018       C  0.24854415  0.54323618  0.98121031     0.62100
F2019       F  0.36328475  0.66216599  0.93289182    -0.23000
F2020       F  0.38408827  0.61505443  0.90560862    -0.20400
F2021       F  0.40181571  0.62597894  0.96045674    -0.20100
F2022       F  0.21416289  0.55543638  0.97387185    -0.20100
F2023       F  0.24788699  0.52742076  0.01366456    -0.20400
F2024       F  0.25580233  0.51802564  0.95649838    -0.23100
C2025       C  0.22166231  0.68099610  0.02846054    -0.05900
C2026       C  0.25076887  0.65685709  0.02082103    -0.06400
C2027       C  0.27983733  0.65515851  0.04631499    -0.08600
C2028       C  0.27356761  0.67148715  0.07900284    -0.06000
C2029       C  0.24240438  0.69220110  0.08703760     0.00000
C2030       C  0.21705972  0.69877409  0.06006113    -0.08500
C2031       C  0.18453732  0.72388101  0.06392652     0.61900
H2032       H  0.20095405  0.68527165  0.00914047     0.12600
H2033       H  0.29354281  0.66805286  0.09925176     0.12600
C2034       C  0.31864247  0.63957504  0.04087353     0.62100
F2035       F  0.16713509  0.73004338  0.03261053    -0.23000
F2036       F  0.19659537  0.75508835  0.07549331    -0.20400
F2037       F  0.15866274  0.71068664  0.08721425    -0.20100
F2038       F  0.33681807  0.65697394  0.01433581    -0.20100
F2039       F  0.31787338  0.60501752  0.03429281    -0.20400
F2040       F  0.34033585  0.64280085  0.06989065    -0.23100
C2041       C  0.73023130  0.34434777  0.07410908    -0.05900
C2042       C  0.74020573  0.33321262  0.04013403     0.00000
C2043       C  0.75378205  0.29786865  0.03721831    -0.08600
C2044       C  0.75690735  0.27770409  0.06844386    -0.06000
C2045       C  0.74550708  0.29028215  0.10118567     0.00000
C2046       C  0.72888623  0.32304120  0.10323248    -0.08500
C2047       C  0.70812184  0.33539191  0.13589842     0.61900
H2048       H  0.72192969  0.37051374  0.07808558     0.12600
H2049       H  0.76885388  0.25201565  0.06784766     0.12600
C2050       C  0.76568314  0.28009900  0.00322048     0.62100
F2051       F  0.68528775  0.30973913  0.14812557    -0.23000
F2052       F  0.68625587  0.36420583  0.12934298    -0.20400
F2053       F  0.73231426  0.34380247  0.16140552    -0.20100
F2054       F  0.79017065  0.29942883  0.98371538    -0.20100
F2055       F  0.73511724  0.27318019  0.98401014    -0.20400
F2056       F  0.78342756  0.24885603  0.00936196    -0.23100
C2057       C  0.80742710  0.36811379  0.02644473    -0.05900
C2058       C  0.77293328  0.38583864  0.02404078     0.00000
C2059       C  0.77388454  0.42176582  0.03392072    -0.08600
C2060       C  0.80768842  0.43890753  0.02950471    -0.06000
C2061       C  0.84120144  0.42084770  0.02689956     0.00000
C2062       C  0.84090113  0.38485609  0.03087126    -0.08500
C2063       C  0.87568330  0.36411671  0.03823802     0.61900
H2064       H  0.80863939  0.34070230  0.02401881     0.12600
H2065       H  0.80826092  0.46667633  0.03121711     0.12600
C2066       C  0.74460354  0.44380168  0.05289754     0.62100
F2067       F  0.86902070  0.32933185  0.04101134    -0.23000
F2068       F  0.90151756  0.36939720  0.01172940    -0.20400
F2069       F  0.88971809  0.37432003  0.06963439    -0.20100
F2070       F  0.76010487  0.45814528  0.08190647    -0.20100
F2071       F  0.71429180  0.42655610  0.06516924    -0.20400
F2072       F  0.73349065  0.47044474  0.03130716    -0.23100
C2073       C  0.63896270  0.39766535  0.03865047    -0.05900
C2074       C  0.63835210  0.42893897  0.02094453     0.00000
C2075       C  0.66872083  0.43792029  0.99907244    -0.08600
C2076       C  0.69882091  0.41473971  0.99566362    -0.06000
C2077       C  0.70082297  0.38331430  0.01434837     0.00000
C2078       C  0.66704587  0.37284685  0.03251097    -0.08500
C2079       C  0.65413898  0.33659266  0.04235066     0.61900
H2080       H  0.61427408  0.39052827  0.05341671     0.12600
H2081       H  0.72198201  0.42184890  0.97918502     0.12600
C2082       C  0.67036218  0.47297463  0.98113012     0.62100
F2083       F  0.62020706  0.33172206  0.02770060    -0.23000
F2084       F  0.64929191  0.33384384  0.07816296    -0.20400
F2085       F  0.67622758  0.30969408  0.03101249    -0.20100
F2086       F  0.66100483  0.49834913  0.00497826    -0.20100
F2087       F  0.64637237  0.47502522  0.95385487    -0.20400
F2088       F  0.70524559  0.47956035  0.96753765    -0.23100
C2089       C  0.29593498  0.91207103  0.77156892    -0.05900
C2090       C  0.27245195  0.91318680  0.74328069     0.00000
C2091       C  0.27690866  0.94007193  0.71849293    -0.08600
C2092       C  0.30462228  0.96443538  0.72303925    -0.06000
C2093       C  0.32727190  0.96515049  0.75262187     0.00000
C2094       C  0.32591360  0.93441961  0.77450590    -0.08500
C2095       C  0.35604433  0.91931787  0.79773591     0.61900
H2096       H  0.29378779  0.89023490  0.78931700     0.12600
H2097       H  0.30707228  0.98447983  0.70368054     0.12600
C2098       C  0.25189304  0.94590460  0.68788288     0.62100
F2099       F  0.34675107  0.92465356  0.83248470    -0.23000
F2100       F  0.39051863  0.93133079  0.79018114    -0.20400
F2101       F  0.35929231  0.88416379  0.79292096    -0.20100
F2102       F  0.23480336  0.97787445  0.69090292    -0.20100
F2103       F  0.22469942  0.92172552  0.68613997    -0.20400
F2104       F  0.27291341  0.94542661  0.65728099    -0.23100
C2105       C  0.28552205  0.03223114  0.75879654    -0.05900
C2106       C  0.32500919  0.03326655  0.76079272     0.00000
C2107       C  0.34023951  0.06687735  0.76500054    -0.08600
C2108       C  0.31686271  0.09596670  0.76171160    -0.06000
C2109       C  0.27843079  0.09457996  0.75883361     0.00000
C2110       C  0.26226335  0.06204481  0.75755136    -0.08500
C2111       C  0.22075006  0.05865679  0.75569640     0.61900
H2112       H  0.27205427  0.00801352  0.75859097     0.12600
H2113       H  0.32869210  0.12116745  0.76241190     0.12600
C2114       C  0.38000134  0.07402938  0.77539328     0.62100
F2115       F  0.21050456  0.02473970  0.75325314    -0.23000
F2116       F  0.20790137  0.07598261  0.72660321    -0.20400
F2117       F  0.20401119  0.07236444  0.78541222    -0.20100
F2118       F  0.40576109  0.05826650  0.75363437    -0.20100
F2119       F  0.38521188  0.06354724  0.80948262    -0.20400
F2120       F  0.38773944  0.10868830  0.77419830    -0.23100
C2121       C  0.40896729  0.99587767  0.79713760    -0.05900
C2122       C  0.36967844  0.99709986  0.79530469     0.00000
C2123       C  0.34996720  0.99644409  0.82905371    -0.08600
C2124       C  0.36998626  0.99139580  0.86017477    -0.06000
C2125       C  0.40816703  0.98698288  0.86058343     0.00000
C2126       C  0.42813940  0.98962395  0.82855481    -0.08500
C2127       C  0.46987285  0.98569828  0.82761610     0.61900
H2128       H  0.42547929  0.99966479  0.77388749     0.12600
H2129       H  0.35591401  0.99179381  0.88544611     0.12600
C2130       C  0.30846137  0.00324836  0.83483731     0.62100
F2131       F  0.48475343  0.99041332  0.79429700    -0.23000
F2132       F  0.47972994  0.95303023  0.83896625    -0.20400
F2133       F  0.48505243  0.00956251  0.84917216    -0.20100
F2134       F  0.28777050  0.98306360  0.81396570    -0.20100
F2135       F  0.30023122  0.03756374  0.82905883    -0.20400
F2136       F  0.29678374  0.99609140  0.86882735    -0.23100
C2137       C  0.40478044  0.97623090  0.71894195    -0.05900
C2138       C  0.37712658  0.00225696  0.72370273     0.00000
C2139       C  0.37686365  0.02800453  0.69541765    -0.08600
C2140       C  0.40800039  0.03065030  0.67214311    -0.06000
C2141       C  0.43562521  0.00534028  0.66919186     0.00000
C2142       C  0.43397422  0.97767848  0.69349086    -0.08500
C2143       C  0.46375972  0.94997234  0.69543556     0.61900
H2144       H  0.40474741  0.95450711  0.73644639     0.12600
H2145       H  0.40843213  0.05095833  0.65250194     0.12600
C2146       C  0.34501907  0.05133755  0.68310633     0.62100
F2147       F  0.44833889  0.91823068  0.69089145    -0.23000
F2148       F  0.47916595  0.95065769  0.72809237    -0.20400
F2149       F  0.49185661  0.95434311  0.67083931    -0.20100
F2150       F  0.31068765  0.04261754  0.69508871    -0.20100
F2151       F  0.34287926  0.04973656  0.64703961    -0.20400
F2152       F  0.35175000  0.08498831  0.69161844    -0.23100
C2153       C  0.38426605  0.76592663  0.13446097    -0.05900
C2154       C  0.38627621  0.76499498  0.17062922     0.00000
C2155       C  0.42034243  0.75667204  0.18599778    -0.08600
C2156       C  0.45195190  0.75125943  0.16419829    -0.06000
C2157       C  0.45112131  0.75363573  0.12703998     0.00000
C2158       C  0.41493936  0.75926052  0.11201956    -0.08500
C2159       C  0.40572510  0.75594145  0.07320866     0.61900
H2160       H  0.35706608  0.76999606  0.12391447     0.12600
H2161       H  0.47746932  0.74543066  0.17677887     0.12600
C2162       C  0.42347980  0.75444345  0.22541310     0.62100
F2163       F  0.40710615  0.72179230  0.06391628    -0.23000
F2164       F  0.37036428  0.76788117  0.06626338    -0.20400
F2165       F  0.42872970  0.77451876  0.05152041    -0.20100
F2166       F  0.40317813  0.72734775  0.23844433    -0.20100
F2167       F  0.41019624  0.78466023  0.24015757    -0.20400
F2168       F  0.45964593  0.74940764  0.23543144    -0.23100
C2169       C  0.48201565  0.71936553  0.04393617    -0.05900
C2170       C  0.48098331  0.71766422  0.08123180     0.00000
C2171       C  0.47162921  0.68447747  0.09645466    -0.08600
C2172       C  0.46782648  0.65621394  0.07433991    -0.06000
C2173       C  0.47588307  0.65765071  0.03867980     0.00000
C2174       C  0.48133526  0.68989730  0.02266579    -0.08500
C2175       C  0.48535576  0.69328525  0.98325777     0.61900
H2176       H  0.48428934  0.74354519  0.03066216     0.12600
H2177       H  0.46086695  0.63137643  0.08529911     0.12600
C2178       C  0.46665942  0.67610509  0.13549175     0.62100
F2179       F  0.48413421  0.72725984  0.97226022    -0.23000
F2180       F  0.45696069  0.67656140  0.96761500    -0.20400
F2181       F  0.51871072  0.67887664  0.97213351    -0.20100
F2182       F  0.43192244  0.68668591  0.14708014    -0.20100
F2183       F  0.49354695  0.69046607  0.15498091    -0.20400
F2184       F  0.46938640  0.64115574  0.14234273    -0.23100
C2185       C  0.47030067  0.84340345  0.06278119    -0.05900
C2186       C  0.49590519  0.84387771  0.03522855     0.00000
C2187       C  0.52107248  0.81584392  0.03188800    -0.08600
C2188       C  0.51925370  0.78846252  0.05640540    -0.06000
C2189       C  0.49218909  0.78652702  0.08368063     0.00000
C2190       C  0.47113957  0.81847314  0.08959743    -0.08500
C2191       C  0.45192606  0.83265791  0.12285802     0.61900
H2192       H  0.45236053  0.86594630  0.06600101     0.12600
H2193       H  0.53863131  0.76745912  0.05300619     0.12600
C2194       C  0.54896112  0.81231564  0.00212330     0.62100
F2195       F  0.46349380  0.86582650  0.12831852    -0.23000
F2196       F  0.45921620  0.81577213  0.15331086    -0.20400
F2197       F  0.41421360  0.83421483  0.11840068    -0.20100
F2198       F  0.58363888  0.80685013  0.01560138    -0.20100
F2199       F  0.54941032  0.84084485  0.98043592    -0.20400
F2200       F  0.54045878  0.78426068  0.98224471    -0.23100
C2201       C  0.68799357  0.88628456  0.99179068    -0.05900
C2202       C  0.72100379  0.90420694  0.99819944     0.00000
C2203       C  0.71708645  0.94110489  0.00354857    -0.08600
C2204       C  0.68113653  0.95454549  0.00917104    -0.06000
C2205       C  0.64997057  0.93491530  0.00544917     0.00000
C2206       C  0.65309602  0.90064132  0.99560382    -0.08500
C2207       C  0.61972458  0.87878347  0.98986650     0.61900
H2208       H  0.68942464  0.85903550  0.98708418     0.12600
H2209       H  0.67691510  0.98159134  0.01501888     0.12600
C2210       C  0.74554776  0.96981752  0.00287834     0.62100
F2211       F  0.59780120  0.89387540  0.96472463    -0.23000
F2212       F  0.59977485  0.87577133  0.02094962    -0.20400
F2213       F  0.62959393  0.84608308  0.97860764    -0.20100
F2214       F  0.77977285  0.96197879  0.98922823    -0.20100
F2215       F  0.74923588  0.98206348  0.03633893    -0.20400
F2216       F  0.73268624  0.99678340  0.98230196    -0.23100
C2217       C  0.81817828  0.89448646  0.97185151    -0.05900
C2218       C  0.79302911  0.89733200  0.00072290     0.00000
C2219       C  0.80560132  0.91481272  0.03106556    -0.08600
C2220       C  0.84017461  0.93035925  0.02873762    -0.06000
C2221       C  0.86144905  0.93147454  0.99750429     0.00000
C2222       C  0.84979672  0.91354490  0.96817759    -0.08500
C2223       C  0.86969498  0.91406188  0.93262850     0.61900
H2224       H  0.81387915  0.87707886  0.95100194     0.12600
H2225       H  0.85062379  0.94224830  0.05183563     0.12600
C2226       C  0.78590620  0.91683265  0.06682093     0.62100
F2227       F  0.84915001  0.89961534  0.90674255    -0.23000
F2228       F  0.90255131  0.89553134  0.93445281    -0.20400
F2229       F  0.87612050  0.94762530  0.92240334    -0.20100
F2230       F  0.74813766  0.91640026  0.06513523    -0.20100
F2231       F  0.79407074  0.94710480  0.08337474    -0.20400
F2232       F  0.79789786  0.88983104  0.08760138    -0.23100
C2233       C  0.77851658  0.81097908  0.07268249    -0.05900
C2234       C  0.74544803  0.81122869  0.09224859     0.00000
C2235       C  0.71472082  0.82879101  0.07891441    -0.08600
C2236       C  0.72076751  0.85295276  0.05264324    -0.06000
C2237       C  0.75357529  0.85374311  0.03124351     0.00000
C2238       C  0.78276780  0.82967072  0.04108392    -0.08500
C2239       C  0.82022190  0.82461816  0.02219667     0.61900
H2240       H  0.80186821  0.79684702  0.08311191     0.12600
H2241       H  0.69846261  0.87124450  0.05036450     0.12600
C2242       C  0.67496165  0.82273640  0.09077741     0.62100
F2243       F  0.84354110  0.85065636  0.03044899    -0.23000
F2244       F  0.81720052  0.82288630  0.98656257    -0.20400
F2245       F  0.83731016  0.79407284  0.03227970    -0.20100
F2246       F  0.66185073  0.85013825  0.11043405    -0.20100
F2247       F  0.67112076  0.79258044  0.10981320    -0.20400
F2248       F  0.65326744  0.82003380  0.06171903    -0.23100
C2249       C  0.68428027  0.92162871  0.27729177    -0.05900
C2250       C  0.69990836  0.91456299  0.24457190     0.00000
C2251       C  0.69293687  0.93813616  0.21722778    -0.08600
C2252       C  0.67063616  0.96787487  0.22398439    -0.06000
C2253       C  0.65068923  0.97418081  0.25611408     0.00000
C2254       C  0.65677244  0.94764448  0.28334098    -0.08500
C2255       C  0.63633170  0.94197241  0.31884813     0.61900
H2256       H  0.69149651  0.90368323  0.29797143     0.12600
H2257       H  0.66773464  0.98627225  0.20294237     0.12600
C2258       C  0.70952362  0.93215500  0.18097699     0.62100
F2259       F  0.63836031  0.90777298  0.32928218    -0.23000
F2260       F  0.59918644  0.94907800  0.31835986    -0.20400
F2261       F  0.65251112  0.96014866  0.34484396    -0.20100
F2262       F  0.69204268  0.90528865  0.16547877    -0.20100
F2263       F  0.74675261  0.92418214  0.18320633    -0.20400
F2264       F  0.70577645  0.96088669  0.15966718    -0.23100
C2265       C  0.88985067  0.79100244  0.35768871    -0.05900
C2266       C  0.88221097  0.76556229  0.33406830     0.00000
C2267       C  0.90837288  0.73811383  0.33004141    -0.08600
C2268       C  0.93853702  0.73568537  0.35262110    -0.06000
C2269       C  0.94856032  0.76200754  0.37579352     0.00000
C2270       C  0.92329653  0.79236537  0.37614572    -0.08500
C2271       C  0.92633866  0.82723566  0.39453977     0.61900
H2272       H  0.86856390  0.81068196  0.36138054     0.12600
H2273       H  0.95631387  0.71307186  0.35029576     0.12600
C2274       C  0.90796778  0.71135563  0.30134986     0.62100
F2275       F  0.96106689  0.83994810  0.39383577    -0.23000
F2276       F  0.90576398  0.85272492  0.37794114    -0.20400
F2277       F  0.91244014  0.82537213  0.42833686    -0.20100
F2278       F  0.88076077  0.71689384  0.27724140    -0.20100
F2279       F  0.90392729  0.67916948  0.31636354    -0.20400
F2280       F  0.94129602  0.71174120  0.28297516    -0.23100
C2281       C  0.78536967  0.57614494  0.22739623    -0.05900
C2282       C  0.78321333  0.59812802  0.25632204     0.00000
C2283       C  0.80177825  0.58645224  0.28658159    -0.08600
C2284       C  0.82688078  0.55847843  0.28467380    -0.06000
C2285       C  0.82920171  0.53481845  0.25681881     0.00000
C2286       C  0.80587589  0.54407959  0.22745126    -0.08500
C2287       C  0.80292891  0.52292627  0.19432365     0.61900
H2288       H  0.77143164  0.58460555  0.20403978     0.12600
H2289       H  0.84447805  0.55586647  0.30664357     0.12600
C2290       C  0.79527956  0.60082086  0.32289375     0.62100
F2291       F  0.76934250  0.52913146  0.17875179    -0.23000
F2292       F  0.80494869  0.48815689  0.20105873    -0.20400
F2293       F  0.83022094  0.53189250  0.17039918    -0.20100
F2294       F  0.76733870  0.62533882  0.32469638    -0.20100
F2295       F  0.82759904  0.61441849  0.33441575    -0.20400
F2296       F  0.78548182  0.57423547  0.34528589    -0.23100
C2297       C  0.58644485  0.71847362  0.14159733    -0.05900
C2298       C  0.59135253  0.74246955  0.16761601     0.00000
C2299       C  0.56360563  0.76818713  0.17249364    -0.08600
C2300       C  0.53391617  0.77023798  0.14946929    -0.06000
C2301       C  0.52640435  0.74529068  0.12414300     0.00000
C2302       C  0.55644032  0.71983641  0.11832449    -0.08500
C2303       C  0.56177524  0.69495230  0.08760437     0.61900
H2304       H  0.60813215  0.69911468  0.13860795     0.12600
H2305       H  0.51520982  0.79157447  0.15274129     0.12600
C2306       C  0.56205578  0.79307118  0.20281669     0.62100
F2307       F  0.59810351  0.68352021  0.08359542    -0.23000
F2308       F  0.55370744  0.71022050  0.05619988    -0.20400
F2309       F  0.54153233  0.66590780  0.09317114    -0.20100
F2310       F  0.56625431  0.82618238  0.19020715    -0.20100
F2311       F  0.58833052  0.78602769  0.22752664    -0.20400
F2312       F  0.52794501  0.79111402  0.21966257    -0.23100
C2313       C  0.67116687  0.63753199  0.49945857    -0.05900
C2314       C  0.70345409  0.61609497  0.49640887     0.00000
C2315       C  0.69782095  0.58129267  0.48426765    -0.08600
C2316       C  0.66218123  0.57272011  0.47330671    -0.06000
C2317       C  0.63249967  0.59607358  0.47339164     0.00000
C2318       C  0.63718744  0.62933195  0.48591505    -0.08500
C2319       C  0.60741617  0.65720884  0.48240752     0.61900
H2320       H  0.67389975  0.66321121  0.50891186     0.12600
H2321       H  0.65648252  0.54694597  0.46500458     0.12600
C2322       C  0.72666980  0.55204872  0.48203010     0.62100
F2323       F  0.62126931  0.68967976  0.48697898    -0.23000
F2324       F  0.57952850  0.65239834  0.50705011    -0.20400
F2325       F  0.59296042  0.65634303  0.44932706    -0.20100
F2326       F  0.73918931  0.54400293  0.51487293    -0.20100
F2327       F  0.75528704  0.56001028  0.45927813    -0.20400
F2328       F  0.71239554  0.52200321  0.46950436    -0.23100
C2329       C  0.78487409  0.59505430  0.52046860    -0.05900
C2330       C  0.77687904  0.61546144  0.49060156     0.00000
C2331       C  0.80444747  0.61449877  0.46203618    -0.08600
C2332       C  0.83663376  0.59413573  0.46670822    -0.06000
C2333       C  0.84405202  0.57517299  0.49702947     0.00000
C2334       C  0.81689027  0.57475912  0.52424202    -0.08500
C2335       C  0.82072276  0.55331567  0.55752163     0.61900
H2336       H  0.76474402  0.59480608  0.54171990     0.12600
H2337       H  0.85678446  0.59202765  0.44560404     0.12600
C2338       C  0.80197930  0.63013937  0.42494185     0.62100
F2339       F  0.78990263  0.55598810  0.57950414    -0.23000
F2340       F  0.85047903  0.56428543  0.57595286    -0.20400
F2341       F  0.82532883  0.51899790  0.54917634    -0.20100
F2342       F  0.77759163  0.61175435  0.40589498    -0.20100
F2343       F  0.79287566  0.66454975  0.42472681    -0.20400
F2344       F  0.83519159  0.62814957  0.40632389    -0.23100
C2345       C  0.72065388  0.64564450  0.43368684    -0.05900
C2346       C  0.73243100  0.66302474  0.46391327     0.00000
C2347       C  0.72904961  0.70022737  0.46224881    -0.08600
C2348       C  0.72681957  0.71560954  0.42879107    -0.06000
C2349       C  0.71809448  0.69665587  0.39952553     0.00000
C2350       C  0.70994689  0.66199971  0.40333915    -0.08500
C2351       C  0.68903394  0.64118673  0.37726942     0.61900
H2352       H  0.71901434  0.61806595  0.43347780     0.12600
H2353       H  0.73056417  0.74301957  0.42554297     0.12600
C2354       C  0.72460896  0.72578149  0.49223972     0.62100
F2355       F  0.71080314  0.61402024  0.36540828    -0.23000
F2356       F  0.67735605  0.66041413  0.34902684    -0.20400
F2357       F  0.65799722  0.62803007  0.39387621    -0.20100
F2358       F  0.70697796  0.71259398  0.52141347    -0.20100
F2359       F  0.70265093  0.75352544  0.48205522    -0.20400
F2360       F  0.75839899  0.73851210  0.50076250    -0.23100
C2361       C  0.56833285  0.49101628  0.77353058    -0.05900
C2362       C  0.60577221  0.50161617  0.77440078     0.00000
C2363       C  0.61887334  0.50590664  0.80936952    -0.08600
C2364       C  0.59345384  0.51012570  0.83755986    -0.06000
C2365       C  0.55604408  0.50311402  0.83501476     0.00000
C2366       C  0.54316528  0.49290549  0.80243949    -0.08500
C2367       C  0.50290904  0.48408840  0.79826173     0.61900
H2368       H  0.55759616  0.48137199  0.75002735     0.12600
H2369       H  0.60365277  0.51605396  0.86316957     0.12600
C2370       C  0.65835021  0.49983953  0.82058740     0.62100
F2371       F  0.49553650  0.47428654  0.76454408    -0.23000
F2372       F  0.48083785  0.51253830  0.80599611    -0.20400
F2373       F  0.49360795  0.45740730  0.82069379    -0.20100
F2374       F  0.67547953  0.53085271  0.82451268    -0.20100
F2375       F  0.67776610  0.47880919  0.79778035    -0.20400
F2376       F  0.65901597  0.48289586  0.85260116    -0.23100
C2377       C  0.56889719  0.52465359  0.70514031    -0.05900
C2378       C  0.60784884  0.51826426  0.70449931     0.00000
C2379       C  0.62384760  0.51570456  0.66967288    -0.08600
C2380       C  0.60107691  0.50791157  0.64158880    -0.06000
C2381       C  0.56246582  0.50998400  0.64410738     0.00000
C2382       C  0.54616874  0.52045407  0.67605600    -0.08500
C2383       C  0.50488032  0.52720635  0.67939140     0.61900
H2384       H  0.55526419  0.53333090  0.72854753     0.12600
H2385       H  0.61380384  0.50331890  0.61604488     0.12600
C2386       C  0.66276835  0.52555413  0.65824780     0.62100
F2387       F  0.49437583  0.53919444  0.71215036    -0.23000
F2388       F  0.48661590  0.49704158  0.67383310    -0.20400
F2389       F  0.49410294  0.55154472  0.65491157    -0.20100
F2390       F  0.68356180  0.49640226  0.65021251    -0.20100
F2391       F  0.68009395  0.54479138  0.68255256    -0.20400
F2392       F  0.66140819  0.54583053  0.62828932    -0.23100
C2393       C  0.65955491  0.41226025  0.74032549    -0.05900
C2394       C  0.69806161  0.41259223  0.73585032     0.00000
C2395       C  0.71389881  0.44373401  0.72410478    -0.08600
C2396       C  0.69066702  0.47333809  0.72077570    -0.06000
C2397       C  0.65258275  0.47433372  0.73069762     0.00000
C2398       C  0.63673087  0.44080552  0.73294493    -0.08500
C2399       C  0.59909007  0.43045900  0.72032947     0.61900
H2400       H  0.64626360  0.38803864  0.74575567     0.12600
H2401       H  0.70315113  0.49603583  0.71052526     0.12600
C2402       C  0.75498383  0.44656191  0.71605398     0.62100
F2403       F  0.60338099  0.40265930  0.69812744    -0.23000
F2404       F  0.58157455  0.45530966  0.70108173    -0.20400
F2405       F  0.57695606  0.42051336  0.74840026    -0.20100
F2406       F  0.76457237  0.42703501  0.68715227    -0.20100
F2407       F  0.77489647  0.43522931  0.74444073    -0.20400
F2408       F  0.76495531  0.48006947  0.70889081    -0.23100
C2409       C  0.76982121  0.34309948  0.91309737    -0.05900
C2410       C  0.74009772  0.32415554  0.90236582     0.00000
C2411       C  0.70962700  0.32050621  0.92545566    -0.08600
C2412       C  0.71154404  0.33400346  0.95945040    -0.06000
C2413       C  0.74220016  0.35210120  0.97202087     0.00000
C2414       C  0.76995381  0.36046964  0.94529197    -0.08500
C2415       C  0.79857365  0.38860707  0.94576379     0.61900
H2416       H  0.79273084  0.34599416  0.89460271     0.12600
H2417       H  0.68810972  0.33043706  0.97647035     0.12600
C2418       C  0.67583350  0.30109979  0.91496146     0.62100
F2419       F  0.80654759  0.40068684  0.91226347    -0.23000
F2420       F  0.83121389  0.37573787  0.95883201    -0.20400
F2421       F  0.78607055  0.41705014  0.96352747    -0.20100
F2422       F  0.68624552  0.26880409  0.90314559    -0.20100
F2423       F  0.65794280  0.31896111  0.88878161    -0.20400
F2424       F  0.65101873  0.29696990  0.94262084    -0.23100
C2425       C  0.53917023  0.26487265  0.83698291    -0.05900
C2426       C  0.53406109  0.24261479  0.86607568     0.00000
C2427       C  0.56572224  0.21952351  0.87258494    -0.08600
C2428       C  0.59307239  0.21450771  0.84600025    -0.06000
C2429       C  0.59761506  0.23741817  0.81832317     0.00000
C2430       C  0.56921783  0.26231004  0.81284529    -0.08500
C2431       C  0.56833472  0.28599261  0.78111744     0.61900
H2432       H  0.51924293  0.28490038  0.83248565     0.12600
H2433       H  0.61516441  0.19572907  0.85001161     0.12600
C2434       C  0.57840745  0.20282395  0.90691352     0.62100
F2435       F  0.53392078  0.28494752  0.76634939    -0.23000
F2436       F  0.59407856  0.27665950  0.75551517    -0.20400
F2437       F  0.57459038  0.31925880  0.79130524    -0.20100
F2438       F  0.57276900  0.16789816  0.90613100    -0.20100
F2439       F  0.56293655  0.21620207  0.93669786    -0.20400
F2440       F  0.61593139  0.20760388  0.91057391    -0.23100
C2441       C  0.90246434  0.28832639  0.63131894    -0.05900
C2442       C  0.90401530  0.28601844  0.66772168     0.00000
C2443       C  0.93644615  0.27210024  0.68246945    -0.08600
C2444       C  0.96576171  0.26113858  0.65991973    -0.06000
C2445       C  0.96324331  0.26259689  0.62276635     0.00000
C2446       C  0.92600663  0.26654575  0.61132271    -0.08500
C2447       C  0.90341731  0.23559244  0.60011276     0.61900
H2448       H  0.87598132  0.29577231  0.62065458     0.12600
H2449       H  0.98937498  0.24912998  0.67186944     0.12600
C2450       C  0.93922497  0.26740809  0.72171196     0.62100
F2451       F  0.87277693  0.24702962  0.58208712    -0.23000
F2452       F  0.92179500  0.21234624  0.57902534    -0.20400
F2453       F  0.89128976  0.21766800  0.62945956    -0.20100
F2454       F  0.92012638  0.23874911  0.73241420    -0.20100
F2455       F  0.92437391  0.29587973  0.73869755    -0.20400
F2456       F  0.97545877  0.26314795  0.73160369    -0.23100
C2457       C  0.73883976  0.14192303  0.56697644    -0.05900
C2458       C  0.75699184  0.15520113  0.53646418     0.00000
C2459       C  0.78956890  0.17410068  0.54368995    -0.08600
C2460       C  0.79128144  0.19093270  0.57628186    -0.06000
C2461       C  0.76549164  0.18449923  0.60319607     0.00000
C2462       C  0.74204148  0.15656983  0.59992928    -0.08500
C2463       C  0.72175861  0.14143945  0.63146043     0.61900
H2464       H  0.72137057  0.12000940  0.56536190     0.12600
H2465       H  0.81285567  0.20891097  0.58112356     0.12600
C2466       C  0.82431197  0.17326812  0.52072343     0.62100
F2467       F  0.70478321  0.11104726  0.62368237    -0.23000
F2468       F  0.69497413  0.16431377  0.64366000    -0.20400
F2469       F  0.74664632  0.13460372  0.65754246    -0.20100
F2470       F  0.85187843  0.19290533  0.53416757    -0.20100
F2471       F  0.81755076  0.18555778  0.48781261    -0.20400
F2472       F  0.83796650  0.13997304  0.51895080    -0.23100
C2473       C  0.87736974  0.00534809  0.69283150    -0.05900
C2474       C  0.89636022  0.00384721  0.72501908     0.00000
C2475       C  0.93639801  0.99877160  0.72099756    -0.08600
C2476       C  0.95321650  0.00001294  0.68660146    -0.06000
C2477       C  0.93305666  0.00150173  0.65580869     0.00000
C2478       C  0.89407834  0.00110017  0.65961796    -0.08500
C2479       C  0.86786779  0.99454378  0.63016599     0.61900
H2480       H  0.84750288  0.00713611  0.69375951     0.12600
H2481       H  0.98290275  0.99893055  0.68309113     0.12600
C2482       C  0.96284392  0.98854278  0.74993470     0.62100
F2483       F  0.84260375  0.97019892  0.64083626    -0.23000
F2484       F  0.88532554  0.98203950  0.60038255    -0.20400
F2485       F  0.84877757  0.02458430  0.62240526    -0.20100
F2486       F  0.95551866  0.95549166  0.76078496    -0.20100
F2487       F  0.96104153  0.01088337  0.77749596    -0.20400
F2488       F  0.99939637  0.98817744  0.73853653    -0.23100
C2489       C  0.90409840  0.97839520  0.80857393    -0.05900
C2490       C  0.88797946  0.00954425  0.79617909     0.00000
C2491       C  0.89015435  0.03819590  0.82054723    -0.08600
C2492       C  0.91585605  0.03616938  0.84784552    -0.06000
C2493       C  0.93271109  0.00550587  0.85866975     0.00000
C2494       C  0.92651092  0.97573276  0.83841257    -0.08500
C2495       C  0.94576333  0.94151046  0.84596980     0.61900
H2496       H  0.89964267  0.95544149  0.79386710     0.12600
H2497       H  0.92001858  0.05869352  0.86357317     0.12600
C2498       C  0.86480579  0.07004067  0.82460501     0.62100
F2499       F  0.94145356  0.91800694  0.81961493    -0.23000
F2500       F  0.93149308  0.92712640  0.87630950    -0.20400
F2501       F  0.98315041  0.94647880  0.84905933    -0.20100
F2502       F  0.85780760  0.07664459  0.85973226    -0.20100
F2503       F  0.83060445  0.06666003  0.81104806    -0.20400
F2504       F  0.88190226  0.09854270  0.81049719    -0.23100
C2505       C  0.80764440  0.04261210  0.74560749    -0.05900
C2506       C  0.84659365  0.04237268  0.75018282     0.00000
C2507       C  0.86407640  0.07504713  0.74406865    -0.08600
C2508       C  0.84194519  0.10515845  0.74301425    -0.06000
C2509       C  0.80331537  0.10541941  0.74397164     0.00000
C2510       C  0.78573935  0.07340268  0.74373086    -0.08500
C2511       C  0.74419688  0.07175624  0.74124329     0.61900
H2512       H  0.79373379  0.01850839  0.74449723     0.12600
H2513       H  0.85519097  0.12963113  0.74135907     0.12600
C2514       C  0.90536410  0.08018509  0.73672779     0.62100
F2515       F  0.73262996  0.03848291  0.73694312    -0.23000
F2516       F  0.73250453  0.09111610  0.71299406    -0.20400
F2517       F  0.72767693  0.08452992  0.77148110    -0.20100
F2518       F  0.91472329  0.06920163  0.70346771    -0.20100
F2519       F  0.92658500  0.06325179  0.76073347    -0.20400
F2520       F  0.91508317  0.11433894  0.73805604    -0.23100
C2521       C  0.66240807  0.60541643  0.75631918    -0.05900
C2522       C  0.70087759  0.60234139  0.75816917     0.00000
C2523       C  0.71624674  0.56901817  0.75984114    -0.08600
C2524       C  0.69282487  0.54059378  0.75596884    -0.06000
C2525       C  0.65417912  0.54297699  0.74842645     0.00000
C2526       C  0.63866820  0.57744631  0.75227964    -0.08500
C2527       C  0.59772973  0.58751453  0.75191493     0.61900
H2528       H  0.65076428  0.63115759  0.75732781     0.12600
H2529       H  0.70569508  0.51642090  0.76125266     0.12600
C2530       C  0.75717458  0.56330823  0.76567314     0.62100
F2531       F  0.59074964  0.61992671  0.76544533    -0.23000
F2532       F  0.57700212  0.56580558  0.77257168    -0.20400
F2533       F  0.58583760  0.58870970  0.71798243    -0.20100
F2534       F  0.76637892  0.57744284  0.79718038    -0.20100
F2535       F  0.77730171  0.57867887  0.73888098    -0.20400
F2536       F  0.76709122  0.52879442  0.76666688    -0.23100
C2537       C  0.77597634  0.69300356  0.57488540    -0.05900
C2538       C  0.74859180  0.68733465  0.60083536     0.00000
C2539       C  0.71985894  0.66458338  0.59303515    -0.08600
C2540       C  0.72043725  0.64858235  0.56037594    -0.06000
C2541       C  0.74527506  0.65667053  0.53229126     0.00000
C2542       C  0.77558168  0.67808728  0.54126437    -0.08500
C2543       C  0.81051325  0.68259379  0.51882514     0.61900
H2544       H  0.79888880  0.70881625  0.58151386     0.12600
H2545       H  0.70126009  0.62826819  0.55763549     0.12600
C2546       C  0.68814308  0.65638169  0.61853359     0.62100
F2547       F  0.82909347  0.71181934  0.52773434    -0.23000
F2548       F  0.80299566  0.68595161  0.48409101    -0.20400
F2549       F  0.83410081  0.65476905  0.52378880    -0.20100
F2550       F  0.66879843  0.68632055  0.62664902    -0.20100
F2551       F  0.70165933  0.64106511  0.64850378    -0.20400
F2552       F  0.66311200  0.63413438  0.60478639    -0.23100
C2553       C  0.60939220  0.78108477  0.64206351    -0.05900
C2554       C  0.60833192  0.78045689  0.67818279     0.00000
C2555       C  0.57521725  0.77237792  0.69621231    -0.08600
C2556       C  0.54402458  0.76413718  0.67684037    -0.06000
C2557       C  0.54560512  0.76013171  0.63993424     0.00000
C2558       C  0.58007683  0.76970901  0.62238000    -0.08500
C2559       C  0.58909263  0.76926739  0.58331663     0.61900
H2560       H  0.63521269  0.78781060  0.62899946     0.12600
H2561       H  0.51827550  0.76087950  0.69090731     0.12600
C2562       C  0.57295547  0.77320907  0.73583203     0.62100
F2563       F  0.62421835  0.75555806  0.57718706    -0.23000
F2564       F  0.58819181  0.80255817  0.57040940    -0.20400
F2565       F  0.56582441  0.74980598  0.56480418    -0.20100
F2566       F  0.58151234  0.80565704  0.74702336    -0.20100
F2567       F  0.59764902  0.74955769  0.74967375    -0.20400
F2568       F  0.53805899  0.76550324  0.74871536    -0.23100
C2569       C  0.79376417  0.93378457  0.78315783    -0.05900
C2570       C  0.80018968  0.91026370  0.75611464     0.00000
C2571       C  0.82814800  0.91764922  0.73134651    -0.08600
C2572       C  0.84982320  0.94689363  0.73543500    -0.06000
C2573       C  0.84240981  0.97364202  0.76029205     0.00000
C2574       C  0.81336338  0.96527564  0.78609151    -0.08500
C2575       C  0.80264852  0.98685176  0.81822794     0.61900
H2576       H  0.77323348  0.92647993  0.80267540     0.12600
H2577       H  0.87432173  0.94702487  0.71917939     0.12600
C2578       C  0.83612586  0.89365311  0.70087548     0.62100
F2579       F  0.77579546  0.97148984  0.83902779    -0.23000
F2580       F  0.78798372  0.01819035  0.80867210    -0.20400
F2581       F  0.83226484  0.99112951  0.83938504    -0.20100
F2582       F  0.80399350  0.88856345  0.68306261    -0.20100
F2583       F  0.84959264  0.86249393  0.71308997    -0.20400
F2584       F  0.86188750  0.90676628  0.67730779    -0.23100
C2585       C  0.75515390  0.85450906  0.89913843    -0.05900
C2586       C  0.75512507  0.81900200  0.90164907     0.00000
C2587       C  0.75029107  0.80265391  0.93425259    -0.08600
C2588       C  0.74824435  0.82301191  0.96405659    -0.06000
C2589       C  0.75247150  0.85918000  0.96282304     0.00000
C2590       C  0.75103182  0.87543332  0.92844415    -0.08500
C2591       C  0.74420444  0.91373998  0.92041552     0.61900
H2592       H  0.75654337  0.86566358  0.87311752     0.12600
H2593       H  0.74324805  0.80992294  0.98852498     0.12600
C2594       C  0.74745645  0.76389986  0.93784067     0.62100
F2595       F  0.74624628  0.92116316  0.88497702    -0.23000
F2596       F  0.77001847  0.93362876  0.93522643    -0.20400
F2597       F  0.70923793  0.92403640  0.93139854    -0.20100
F2598       F  0.77472054  0.74774151  0.91767621    -0.20100
F2599       F  0.71319740  0.75396796  0.92710769    -0.20400
F2600       F  0.75160512  0.75289856  0.97205467    -0.23100
C2601       C  0.89167469  0.73876809  0.88194851    -0.05900
C2602       C  0.89572174  0.73322693  0.84608234     0.00000
C2603       C  0.93047634  0.73858919  0.83006644    -0.08600
C2604       C  0.96050266  0.74805496  0.85063326    -0.06000
C2605       C  0.95829024  0.75149620  0.88778844     0.00000
C2606       C  0.92127448  0.74815210  0.90328729    -0.08500
C2607       C  0.91073113  0.75566517  0.94157459     0.61900
H2608       H  0.86387695  0.73737607  0.89279351     0.12600
H2609       H  0.98546502  0.75396247  0.83654439     0.12600
C2610       C  0.93515358  0.73495393  0.79067708     0.62100
F2611       F  0.87450517  0.74755572  0.94975604    -0.23000
F2612       F  0.91384819  0.79025522  0.94803788    -0.20400
F2613       F  0.93201018  0.73675925  0.96431509    -0.20100
F2614       F  0.91301448  0.75889996  0.77383997    -0.20100
F2615       F  0.92502718  0.70237530  0.78115123    -0.20400
F2616       F  0.97111603  0.73981567  0.77922354    -0.23100
loop_ 
_geom_bond_atom_site_label_1 
_geom_bond_atom_site_label_2 
_geom_bond_distance 
_geom_bond_site_symmetry_2 
_ccdc_geom_bond_type 
Zr1           O2   2.444       .  S
Zr1           O3   2.417       .  S
Zr1           O4   2.445       .  S
Zr1           O7   2.381       .  S
Zr1           O9   2.368       .  S
Zr1          O10   2.389       .  S
Zr1          O11   2.392       .  S
Zr1          O12   2.411       .  S
O2           H58   0.991       .  S
O2           H66   0.989       .  S
O3           C23   1.282       .  A
O4           C25   1.283       .  A
O5          Zr15   2.517       .  S
O5           C24   1.300       .  A
O6          Zr14   2.497       .  S
O6           C25   1.296       .  A
O7           C24   1.274       .  A
O8          Zr16   2.377       .  S
O8           C23   1.272       .  A
O9          Zr14   2.392       .  S
O9          Zr16   2.395       .  S
O10         Zr15   2.396       .  S
O10         Zr16   2.373       .  S
O10          H45   0.966       .  S
O11         Zr14   2.399       .  S
O11         Zr31   2.400       .  S
O11          H48   0.964       .  S
O12         Zr15   2.409       .  S
O12         Zr31   2.407       .  S
Zr13         O38   2.447       .  S
Zr13         O32   2.420       .  S
Zr13         O40   2.394       .  S
Zr13         O28   2.413       .  S
Zr13         O19   2.390       .  S
Zr13         O20   2.396       .  S
Zr13         O21   2.370       .  S
Zr13         O22   2.385       .  S
Zr14         O33   2.436       .  S
Zr14         O26   2.434       .  S
Zr14         O27   2.461       .  S
Zr14         O20   2.409       .  S
Zr14         O21   2.416       .  S
Zr15         O17   2.434       .  S
Zr15         O39   2.439       .  S
Zr15         O41   2.517       .  S
Zr15         O19   2.393       .  S
Zr15         O22   2.414       .  S
Zr16         O42   2.436       .  S
Zr16         O43   2.436       .  S
Zr16         O18   2.437       .  S
Zr16         O19   2.369       .  S
Zr16         O20   2.366       .  S
O17          H54   0.990       .  S
O18          H49   0.990       .  S
O18          H63   0.990       .  S
O20          H46   0.963       .  S
O21         Zr31   2.381       .  S
O22         Zr31   2.383       .  S
O22          H47   0.966       .  S
C23        C2586   1.454       .  S
C24        C2602   1.492       .  S
C25        C2570   1.510       .  S
O26          H62   0.990       .  S
O27          C29   1.289       .  A
O28          C29   1.278       .  A
C29        C2554   1.468       .  S
O30         Zr31   2.435       .  S
O30          H59   0.990       .  S
Zr31         O34   2.435       .  S
Zr31         O35   2.438       .  S
Zr31         O36   2.440       .  S
O32          C37   1.277       .  A
O33          H50   0.991       .  S
O33          H65   0.990       .  S
O34          H51   0.990       .  S
O35          H55   0.990       .  S
O35          H64   0.990       .  S
O36          C37   1.284       .  A
C37        C2538   1.510       .  S
O38          H57   0.990       .  S
O38          H61   0.989       .  S
O39          H53   0.990       .  S
O39          H60   0.990       .  S
O40          C44   1.278       .  A
O41          C44   1.300       .  A
O42          H52   0.990       .  S
O43          H56   0.990       .  S
C44        C2522   1.512       .  S
C67        C2474   1.627       .  S
C67        C2490   1.608       .  S
C67        C2506   1.596       .  S
C67        C2573   1.645   1_545  S
Zr68         O69   2.438       .  S
Zr68         O70   2.428       .  S
Zr68         O71   2.414       .  S
Zr68         O74   2.408       .  S
Zr68         O76   2.377       .  S
Zr68         O77   2.375       .  S
Zr68         O78   2.404       .  S
Zr68         O79   2.398       .  S
O69         H125   0.990       .  S
O69         H133   0.990       .  S
O70          C90   1.280       .  A
O71          C92   1.282       .  A
O72         Zr82   2.463       .  S
O72          C91   1.288       .  A
O73         Zr81   2.497       .  S
O73          C92   1.295       .  A
O74          C91   1.280       .  A
O75         Zr83   2.432       .  S
O75          C90   1.283       .  A
O76         Zr81   2.402       .  S
O76         Zr83   2.374       .  S
O77         Zr82   2.401       .  S
O77         Zr83   2.370       .  S
O77         H112   0.966       .  S
O78         Zr81   2.412       .  S
O78         Zr98   2.393       .  S
O78         H115   0.965       .  S
O79         Zr82   2.401       .  S
O79         Zr98   2.395       .  S
Zr80        O105   2.454       .  S
Zr80         O99   2.460       .  S
Zr80        O107   2.423       .  S
Zr80         O95   2.430       .  S
Zr80         O86   2.406       .  S
Zr80         O87   2.421       .  S
Zr80         O88   2.378       .  S
Zr80         O89   2.384       .  S
Zr81        O100   2.435       .  S
Zr81         O93   2.436       .  S
Zr81         O94   2.492       .  S
Zr81         O87   2.411       .  S
Zr81         O88   2.412       .  S
Zr82         O84   2.436       .  S
Zr82        O106   2.439       .  S
Zr82        O108   2.460       .  S
Zr82         O86   2.394       .  S
Zr82         O89   2.414       .  S
Zr83        O109   2.437       .  S
Zr83        O110   2.434       .  S
Zr83         O85   2.436       .  S
Zr83         O86   2.396       .  S
Zr83         O87   2.391       .  S
O84         H121   0.990       .  S
O85         H116   0.990       .  S
O85         H130   0.990       .  S
O87         H113   0.963       .  S
O88         Zr98   2.384       .  S
O89         Zr98   2.383       .  S
O89         H114   0.966       .  S
C90        C2461   1.476       .  S
C91        C2442   1.479       .  S
C92        C2509   1.510       .  S
O93         H129   0.990       .  S
O94          C96   1.297       .  A
O95          C96   1.281       .  A
C96        C2429   1.501       .  S
O97         Zr98   2.435       .  S
O97         H126   0.990       .  S
Zr98        O101   2.436       .  S
Zr98        O102   2.438       .  S
Zr98        O103   2.409       .  S
O99         C104   1.285       .  A
O100        H117   0.990       .  S
O100        H132   0.990       .  S
O101        H118   0.990       .  S
O102        H122   0.990       .  S
O102        H131   0.990       .  S
O103        C104   1.278       .  A
C104       C2410   1.491       .  S
O105        H124   0.989       .  S
O105        H128   0.991       .  S
O106        H120   0.990       .  S
O106        H127   0.990       .  S
O107        C111   1.283       .  A
O108        C111   1.287       .  A
O109        H119   0.990       .  S
O110        H123   0.990       .  S
C111       C2394   1.508       .  S
C134       C2362   1.619       .  S
C134       C2378   1.610       .  S
C134       C2397   1.611       .  S
C134       C2525   1.627       .  S
C135       C2314   1.608       .  S
C135       C2330   1.580       .  S
C135       C2346   1.578       .  S
C135       C2541   1.600       .  S
Zr136       O137   2.439       .  S
Zr136       O138   2.409       .  S
Zr136       O139   2.451       .  S
Zr136       O142   2.425       .  S
Zr136       O144   2.383       .  S
Zr136       O145   2.393       .  S
Zr136       O146   2.396       .  S
Zr136       O147   2.398       .  S
O137        H193   0.989       .  S
O137        H201   0.991       .  S
O138        C158   1.279       .  A
O139        C160   1.284       .  A
O140       Zr150   2.489       .  S
O140        C159   1.298       .  A
O141       Zr149   2.493       .  S
O141        C160   1.296       .  A
O142        C159   1.283       .  A
O143       Zr151   2.412       .  S
O143        C158   1.278       .  A
O144       Zr149   2.412       .  S
O144       Zr151   2.392       .  S
O145       Zr150   2.403       .  S
O145       Zr151   2.374       .  S
O145        H180   0.965       .  S
O146       Zr149   2.409       .  S
O146       Zr166   2.377       .  S
O146        H183   0.964       .  S
O147       Zr150   2.418       .  S
O147       Zr166   2.376       .  S
Zr148       O173   2.437       .  S
Zr148       O167   2.428       .  S
Zr148       O175   2.430       .  S
Zr148       O163   2.402       .  S
Zr148       O154   2.397       .  S
Zr148       O155   2.408       .  S
Zr148       O156   2.381       .  S
Zr148       O157   2.377       .  S
Zr149       O168   2.435       .  S
Zr149       O161   2.435       .  S
Zr149       O162   2.509       .  S
Zr149       O155   2.403       .  S
Zr149       O156   2.403       .  S
Zr150       O152   2.436       .  S
Zr150       O174   2.437       .  S
Zr150       O176   2.537       .  S
Zr150       O154   2.397       .  S
Zr150       O157   2.397       .  S
Zr151       O177   2.438       .  S
Zr151       O178   2.436       .  S
Zr151       O153   2.440       .  S
Zr151       O154   2.400       .  S
Zr151       O155   2.391       .  S
O152        H189   0.990       .  S
O153        H184   0.990       .  S
O153        H198   0.989       .  S
O155        H181   0.964       .  S
O156       Zr166   2.390       .  S
O157       Zr166   2.393       .  S
O157        H182   0.964       .  S
C158       C2234   1.475       .  S
C159       C2298   1.502       .  S
C160       C2250   1.508       .  S
O161        H197   0.990       .  S
O162        C164   1.301       .  A
O163        C164   1.274       .  A
C164       C2266   1.503       .  S
O165       Zr166   2.438       .  S
O165        H194   0.990       .  S
Zr166       O169   2.436       .  S
Zr166       O170   2.436       .  S
Zr166       O171   2.385       .  S
O167        C172   1.280       .  A
O168        H185   0.990       .  S
O168        H200   0.991       .  S
O169        H186   0.990       .  S
O170        H190   0.990       .  S
O170        H199   0.990       .  S
O171        C172   1.271       .  A
C172       C2349   1.450       .  S
O173        H192   0.989       .  S
O173        H196   0.989       .  S
O174        H188   0.990       .  S
O174        H195   0.990       .  S
O175        C179   1.281       .  A
O176        C179   1.303       .  A
O177        H187   0.990       .  S
O178        H191   0.990       .  S
C179       C2282   1.530       .  S
C202       C2202   1.569       .  S
C202       C2218   1.546   1_556  S
C202       C2237   1.595   1_556  S
C202       C2589   1.590       .  S
C203       C2157   1.584       .  S
C203       C2170   1.587       .  S
C203       C2189   1.605       .  S
C203       C2301   1.618       .  S
C204       C2093   1.604       .  S
C204       C2106   1.587   1_565  S
C204       C2122   1.606       .  S
C204       C2138   1.631   1_565  S
C205       C2042   1.583       .  S
C205       C2058   1.597       .  S
C205       C2077   1.581       .  S
C205       C2413   1.602   1_554  S
C206       C1978   1.595       .  S
C206       C1994   1.574       .  S
C206       C2010   1.583       .  S
C206       C2026   1.609   1_556  S
C207       C1917   1.603       .  S
C207       C1933   1.611       .  S
C207       C1946   1.624       .  S
C207       C1962   1.625       .  S
C208       C1866   1.594       .  S
C208       C1885   1.590       .  S
C208       C1898   1.607       .  S
C208       C2458   1.599       .  S
C209       C1821   1.618   1_655  S
C209       C1837   1.590       .  S
C209       C1850   1.563       .  S
C209       C2269   1.619       .  S
Zr210       O211   2.448       .  S
Zr210       O212   2.452       .  S
Zr210       O213   2.411       .  S
Zr210       O216   2.413       .  S
Zr210       O218   2.379       .  S
Zr210       O219   2.381       .  S
Zr210       O220   2.417       .  S
Zr210       O221   2.403       .  S
O211        H267   0.990       .  S
O211        H275   0.991       .  S
O212        C232   1.286       .  A
O213        C234   1.279       .  A
O214       Zr224   2.483       .  S
O214        C233   1.294       .  A
O215       Zr223   2.507       .  S
O215        C234   1.296       .  A
O216        C233   1.277       .  A
O217       Zr225   2.422       .  S
O217        C232   1.278       .  A
O218       Zr223   2.411       .  S
O218       Zr225   2.391       .  S
O219       Zr224   2.404       .  S
O219       Zr225   2.381       .  S
O219        H254   0.967       .  S
O220       Zr223   2.408       .  S
O220       Zr240   2.391       .  S
O220        H257   0.963       .  S
O221       Zr224   2.389       .  S
O221       Zr240   2.392       .  S
Zr222       O247   2.441       .  S
Zr222       O241   2.438       .  S
Zr222       O249   2.427       .  S
Zr222       O237   2.407       .  S
Zr222       O228   2.395       .  S
Zr222       O229   2.406       .  S
Zr222       O230   2.387       .  S
Zr222       O231   2.378       .  S
Zr223       O242   2.439       .  S
Zr223       O235   2.435       .  S
Zr223       O236   2.492       .  S
Zr223       O229   2.411       .  S
Zr223       O230   2.412       .  S
Zr224       O226   2.435       .  S
Zr224       O248   2.436       .  S
Zr224       O250   2.484       .  S
Zr224       O228   2.395       .  S
Zr224       O231   2.399       .  S
Zr225       O251   2.434       .  S
Zr225       O252   2.437       .  S
Zr225       O227   2.435       .  S
Zr225       O228   2.392       .  S
Zr225       O229   2.384       .  S
O226        H263   0.990       .  S
O227        H258   0.990       .  S
O227        H272   0.990       .  S
O229        H255   0.965       .  S
O230       Zr240   2.377       .  S
O231       Zr240   2.375       .  S
O231        H256   0.966       .  S
C232       C2029   1.511       .  S
C233       C2154   1.483       .  S
C234       C1786   1.502       .  S
O235        H271   0.990       .  S
O236        C238   1.295       .  A
O237        C238   1.280       .  A
C238       C1818   1.501       .  S
O239       Zr240   2.436       .  S
O239        H268   0.990       .  S
Zr240       O243   2.436       .  S
Zr240       O244   2.437       .  S
Zr240       O245   2.423       .  S
O241        C246   1.283       .  A
O242        H259   0.990       .  S
O242        H274   0.990       .  S
O243        H260   0.990       .  S
O244        H264   0.990       .  S
O244        H273   0.989       .  S
O245        C246   1.283       .  A
C246       C1770   1.480       .  S
O247        H266   0.990       .  S
O247        H270   0.990       .  S
O248        H262   0.990       .  S
O248        H269   0.990       .  S
O249        C253   1.284       .  A
O250        C253   1.295       .  A
O251        H261   0.990       .  S
O252        H265   0.990       .  S
C253       C1805   1.510       .  S
C276       C1725   1.594       .  S
C276       C1738   1.599       .  S
C276       C1754   1.572       .  S
C276       C1773   1.584       .  S
C277       C1674   1.634       .  S
C277       C1690   1.607       .  S
C277       C1706   1.609       .  S
C277       C2285   1.618       .  S
Zr278       O279   2.450       .  S
Zr278       O280   2.415       .  S
Zr278       O281   2.442       .  S
Zr278       O284   2.420       .  S
Zr278       O286   2.385       .  S
Zr278       O287   2.390       .  S
Zr278       O288   2.404       .  S
Zr278       O289   2.390       .  S
O279        H335   0.990       .  S
O279        H343   0.990       .  S
O280        C300   1.275       .  A
O281        C302   1.282       .  A
O282       Zr292   2.461       .  S
O282        C301   1.288       .  A
O283       Zr291   2.451       .  S
O283        C302   1.286       .  A
O284        C301   1.282       .  A
O285       Zr293   2.448       .  S
O285        C300   1.289       .  A
O286       Zr291   2.424       .  S
O286       Zr293   2.381       .  S
O287       Zr292   2.400       .  S
O287       Zr293   2.378       .  S
O287        H322   0.964       .  S
O288       Zr291   2.422       .  S
O288       Zr308   2.368       .  S
O288        H325   0.966       .  S
O289       Zr292   2.407       .  S
O289       Zr308   2.357       .  S
Zr290       O315   2.442       .  S
Zr290       O309   2.435       .  S
Zr290       O317   2.403       .  S
Zr290       O305   2.384       .  S
Zr290       O296   2.395       .  S
Zr290       O297   2.396       .  S
Zr290       O298   2.365       .  S
Zr290       O299   2.374       .  S
Zr291       O310   2.438       .  S
Zr291       O303   2.436       .  S
Zr291       O304   2.514       .  S
Zr291       O297   2.394       .  S
Zr291       O298   2.380       .  S
Zr292       O294   2.436       .  S
Zr292       O316   2.435       .  S
Zr292       O318   2.487       .  S
Zr292       O296   2.393       .  S
Zr292       O299   2.387       .  S
Zr293       O319   2.435       .  S
Zr293       O320   2.436       .  S
Zr293       O295   2.437       .  S
Zr293       O296   2.409       .  S
Zr293       O297   2.412       .  S
O294        H331   0.990       .  S
O295        H326   0.990       .  S
O295        H340   0.990       .  S
O297        H323   0.966       .  S
O298       Zr308   2.382       .  S
O299       Zr308   2.383       .  S
O299        H324   0.963       .  S
C300       C1661   1.507       .  S
C301       C2045   1.479       .  S
C302       C1709   1.477       .  S
O303        H339   0.990       .  S
O304        C306   1.298       .  A
O305        C306   1.277       .  A
C306       C1869   1.507       .  S
O307       Zr308   2.435       .  S
O307        H336   0.990       .  S
Zr308       O311   2.437       .  S
Zr308       O312   2.440       .  S
Zr308       O313   2.350       .  S
O309        C314   1.284       .  A
O310        H327   0.990       .  S
O310        H342   0.990       .  S
O311        H328   0.990       .  S
O312        H332   0.990       .  S
O312        H341   0.990       .  S
O313        C314   1.269       .  A
C314       C1642   1.461       .  S
O315        H334   0.990       .  S
O315        H338   0.990       .  S
O316        H330   0.990       .  S
O316        H337   0.990       .  S
O317        C321   1.278       .  A
O318        C321   1.294       .  A
O319        H329   0.990       .  S
O320        H333   0.990       .  S
C321       C1626   1.488       .  S
C344       C1594   1.593       .  S
C344       C1613   1.639       .  S
C344       C1629   1.594       .  S
C344       C2253   1.630   1_545  S
C345       C1546   1.598       .  S
C345       C1562   1.586       .  S
C345       C1581   1.593       .  S
C345       C2426   1.613       .  S
Zr346       O347   2.439       .  S
Zr346       O348   2.401       .  S
Zr346       O349   2.437       .  S
Zr346       O352   2.410       .  S
Zr346       O354   2.380       .  S
Zr346       O355   2.391       .  S
Zr346       O356   2.397       .  S
Zr346       O357   2.391       .  S
O347        H403   0.989       .  S
O347        H411   0.990       .  S
O348        C368   1.275       .  A
O349        C370   1.285       .  A
O350       Zr360   2.502       .  S
O350        C369   1.299       .  A
O351       Zr359   2.486       .  S
O351        C370   1.294       .  A
O352        C369   1.279       .  A
O353       Zr361   2.391       .  S
O353        C368   1.273       .  A
O354       Zr359   2.412       .  S
O354       Zr361   2.395       .  S
O355       Zr360   2.404       .  S
O355       Zr361   2.383       .  S
O355        H390   0.968       .  S
O356       Zr359   2.412       .  S
O356       Zr376   2.368       .  S
O356        H393   0.964       .  S
O357       Zr360   2.400       .  S
O357       Zr376   2.374       .  S
Zr358       O383   2.446       .  S
Zr358       O377   2.406       .  S
Zr358       O385   2.402       .  S
Zr358       O373   2.431       .  S
Zr358       O364   2.394       .  S
Zr358       O365   2.400       .  S
Zr358       O366   2.373       .  S
Zr358       O367   2.387       .  S
Zr359       O378   2.436       .  S
Zr359       O371   2.435       .  S
Zr359       O372   2.487       .  S
Zr359       O365   2.410       .  S
Zr359       O366   2.403       .  S
Zr360       O362   2.437       .  S
Zr360       O384   2.438       .  S
Zr360       O386   2.499       .  S
Zr360       O364   2.394       .  S
Zr360       O367   2.407       .  S
Zr361       O387   2.435       .  S
Zr361       O388   2.436       .  S
Zr361       O363   2.439       .  S
Zr361       O364   2.376       .  S
Zr361       O365   2.375       .  S
O362        H399   0.990       .  S
O363        H394   0.990       .  S
O363        H408   0.990       .  S
O365        H391   0.988       .  S
O366       Zr376   2.396       .  S
O367       Zr376   2.382       .  S
O367        H392   0.967       .  S
C368       C1514   1.446       .  S
C369       C1498   1.503       .  S
C370       C1930   1.499       .  S
O371        H407   0.990       .  S
O372        C374   1.294       .  A
O373        C374   1.281       .  A
C374       C1578   1.488       .  S
O375       Zr376   2.438       .  S
O375        H404   0.990       .  S
Zr376       O379   2.436       .  S
Zr376       O380   2.436       .  S
Zr376       O381   2.365       .  S
O377        C382   1.276       .  A
O378        H395   0.990       .  S
O378        H410   0.990       .  S
O379        H396   0.990       .  S
O380        H400   0.990       .  S
O380        H409   0.990       .  S
O381        C382   1.269       .  A
C382       C1530   1.436       .  S
O383        H402   0.991       .  S
O383        H406   0.990       .  S
O384        H398   0.990       .  S
O384        H405   0.990       .  S
O385        C389   1.279       .  A
O386        C389   1.296       .  A
O387        H397   0.990       .  S
O388        H401   0.990       .  S
C389       C2109   1.504       .  S
C412       C1466   1.597   1_655  S
C412       C1482   1.561       .  S
C412       C1501   1.620   1_655  S
C412       C2445   1.617       .  S
C413       C1418   1.607       .  S
C413       C1434   1.574       .  S
C413       C1450   1.581       .  S
C413       C1658   1.618   1_455  S
Zr414       O415   2.444       .  S
Zr414       O416   2.396       .  S
Zr414       O417   2.419       .  S
Zr414       O420   2.430       .  S
Zr414       O422   2.386   1_545  S
Zr414       O423   2.383   1_554  S
Zr414       O424   2.397   1_545  S
Zr414       O425   2.382   1_455  S
O415        H471   0.990       .  S
O415        H479   0.990       .  S
O416        C436   1.277       .  A
O417        C438   1.283   1_545  A
O418       Zr428   2.420   1_455  S
O418        C437   1.281   1_556  A
O419       Zr427   2.502       .  S
O419        C438   1.297       .  A
O420        C437   1.285       .  A
O421       Zr429   2.427   1_545  S
O421        C436   1.280   1_556  A
O422       Zr427   2.414       .  S
O422       Zr429   2.374   1_554  S
O423       Zr428   2.414   1_455  S
O423       Zr429   2.380   1_545  S
O423        H458   0.966       .  S
O424       Zr427   2.427       .  S
O424       Zr444   2.381   1_465  S
O424        H461   0.966       .  S
O425       Zr428   2.413   1_554  S
O425       Zr444   2.372       .  S
Zr426       O451   2.434   1_655  S
Zr426       O445   2.397       .  S
Zr426       O453   2.410       .  S
Zr426       O441   2.365       .  S
Zr426       O432   2.376   1_665  S
Zr426       O433   2.399   1_655  S
Zr426       O434   2.376   1_556  S
Zr426       O435   2.361   1_565  S
Zr427       O446   2.433       .  S
Zr427       O439   2.437       .  S
Zr427       O440   2.549       .  S
Zr427       O433   2.398   1_554  S
Zr427       O434   2.380   1_455  S
Zr428       O430   2.434       .  S
Zr428       O452   2.437   1_655  S
Zr428       O454   2.500       .  S
Zr428       O432   2.375   1_655  S
Zr428       O435   2.371       .  S
Zr429       O455   2.434   1_565  S
Zr429       O456   2.437       .  S
Zr429       O431   2.440       .  S
Zr429       O432   2.406   1_565  S
Zr429       O433   2.393       .  S
O430        H467   0.990       .  S
O431        H462   0.990   1_556  S
O431        H476   0.990       .  S
O433        H459   0.964       .  S
O434       Zr444   2.373   1_565  S
O435       Zr444   2.388   1_556  S
O435        H460   0.966       .  S
C436       C1389   1.486       .  S
C437       C1453   1.462       .  S
C438       C1402   1.525       .  S
O439        H475   0.990       .  S
O440        C442   1.303   1_454  A
O441        C442   1.266       .  A
C442       C1373   1.510       .  S
O443       Zr444   2.435       .  S
O443        H472   0.990       .  S
Zr444       O447   2.434   1_545  S
Zr444       O448   2.437       .  S
Zr444       O449   2.381   1_545  S
O445        C450   1.278       .  A
O446        H463   0.990   1_455  S
O446        H478   0.990       .  S
O447        H464   0.990       .  S
O448        H468   0.990       .  S
O448        H477   0.990       .  S
O449        C450   1.275   1_554  A
C450       C2221   1.471       .  S
O451        H470   0.990       .  S
O451        H474   0.989       .  S
O452        H466   0.990       .  S
O452        H473   0.990       .  S
O453        C457   1.278   1_565  A
O454        C457   1.299       .  A
O455        H465   0.989       .  S
O456        H469   0.990       .  S
C457       C2493   1.521       .  S
Zr480       O481   2.444       .  S
Zr480       O482   2.402       .  S
Zr480       O483   2.428       .  S
Zr480       O486   2.393       .  S
Zr480       O488   2.378       .  S
Zr480       O489   2.390       .  S
Zr480       O490   2.390       .  S
Zr480       O491   2.388       .  S
O481        H537   0.991       .  S
O481        H545   0.990       .  S
O482        C502   1.278       .  A
O483        C504   1.281       .  A
O484       Zr494   2.432       .  S
O484        C503   1.284       .  A
O485       Zr493   2.472       .  S
O485        C504   1.291       .  A
O486        C503   1.278       .  A
O487       Zr495   2.437       .  S
O487        C502   1.282       .  A
O488       Zr493   2.405       .  S
O488       Zr495   2.379       .  S
O489       Zr494   2.404       .  S
O489       Zr495   2.369       .  S
O489        H524   0.966       .  S
O490       Zr493   2.412       .  S
O490       Zr510   2.380       .  S
O490        H527   0.965       .  S
O491       Zr494   2.400       .  S
O491       Zr510   2.357       .  S
Zr492       O517   2.443       .  S
Zr492       O511   2.449       .  S
Zr492       O519   2.407       .  S
Zr492       O507   2.384       .  S
Zr492       O498   2.394       .  S
Zr492       O499   2.405       .  S
Zr492       O500   2.373       .  S
Zr492       O501   2.368       .  S
Zr493       O512   2.436       .  S
Zr493       O505   2.434       .  S
Zr493       O506   2.489       .  S
Zr493       O499   2.399       .  S
Zr493       O500   2.392       .  S
Zr494       O496   2.434       .  S
Zr494       O518   2.435       .  S
Zr494       O520   2.486       .  S
Zr494       O498   2.384       .  S
Zr494       O501   2.377       .  S
Zr495       O521   2.437       .  S
Zr495       O522   2.439       .  S
Zr495       O497   2.437       .  S
Zr495       O498   2.405       .  S
Zr495       O499   2.395       .  S
O496        H533   0.989       .  S
O497        H528   0.990       .  S
O497        H542   0.990       .  S
O499        H525   0.964       .  S
O500       Zr510   2.387       .  S
O501       Zr510   2.381       .  S
O501        H526   0.966       .  S
C502       C1437   1.490       .  S
C503       C1354   1.456       .  S
C504       C1341   1.485       .  S
O505        H541   0.990       .  S
O506        C508   1.294       .  A
O507        C508   1.275       .  A
C508       C1306   1.485       .  S
O509       Zr510   2.436       .  S
O509        H538   0.990       .  S
Zr510       O513   2.435       .  S
Zr510       O514   2.438       .  S
Zr510       O515   2.355       .  S
O511        C516   1.286       .  A
O512        H529   0.990       .  S
O512        H544   0.990       .  S
O513        H530   0.990       .  S
O514        H534   0.990       .  S
O514        H543   0.990       .  S
O515        C516   1.270       .  A
C516       C1325   1.448       .  S
O517        H536   0.991       .  S
O517        H540   0.991       .  S
O518        H532   0.990       .  S
O518        H539   0.990       .  S
O519        C523   1.280       .  A
O520        C523   1.294       .  A
O521        H531   0.990       .  S
O522        H535   0.990       .  S
C523       C1293   1.508       .  S
C546       C1277   1.619       .  S
C546       C1338   1.608       .  S
C546       C1405   1.622       .  S
C546       C1802   1.609   1_545  S
Zr547       O548   2.437       .  S
Zr547       O549   2.419       .  S
Zr547       O550   2.443       .  S
Zr547       O553   2.422       .  S
Zr547       O555   2.377   1_655  S
Zr547       O556   2.388       .  S
Zr547       O557   2.406   1_545  S
Zr547       O558   2.411       .  S
O548        H604   0.985       .  S
O548        H612   0.991       .  S
O549        C569   1.275       .  A
O550        C571   1.285       .  A
O551       Zr561   2.476       .  S
O551        C570   1.292       .  A
O552       Zr560   2.517   1_655  S
O552        C571   1.300   1_565  A
O553        C570   1.279       .  A
O554       Zr562   2.371       .  S
O554        C569   1.272   1_455  A
O555       Zr560   2.406   1_545  S
O555       Zr562   2.395       .  S
O556       Zr561   2.410       .  S
O556       Zr562   2.382   1_655  S
O556        H591   0.965       .  S
O557       Zr560   2.407   1_655  S
O557       Zr577   2.388       .  S
O557        H594   0.961       .  S
O558       Zr561   2.411       .  S
O558       Zr577   2.402   1_545  S
Zr559       O584   2.443       .  S
Zr559       O578   2.408       .  S
Zr559       O586   2.421       .  S
Zr559       O574   2.375       .  S
Zr559       O565   2.387   1_565  S
Zr559       O566   2.400   1_565  S
Zr559       O567   2.378       .  S
Zr559       O568   2.374   1_455  S
Zr560       O579   2.435       .  S
Zr560       O572   2.437   1_565  S
Zr560       O573   2.493       .  S
Zr560       O566   2.414   1_565  S
Zr560       O567   2.408       .  S
Zr561       O563   2.435   1_545  S
Zr561       O585   2.438       .  S
Zr561       O587   2.489       .  S
Zr561       O565   2.398   1_655  S
Zr561       O568   2.403   1_545  S
Zr562       O588   2.435       .  S
Zr562       O589   2.436       .  S
Zr562       O564   2.438       .  S
Zr562       O565   2.378       .  S
Zr562       O566   2.366       .  S
O563        H600   0.990   1_565  S
O564        H595   0.991       .  S
O564        H609   0.990       .  S
O566        H592   0.964       .  S
O567       Zr577   2.370   1_455  S
O568       Zr577   2.376       .  S
O568        H593   0.966       .  S
C569       C1485   1.455       .  S
C570       C1882   1.496       .  S
C571       C2477   1.520       .  S
O572        H608   0.990       .  S
O573        C575   1.296       .  A
O574        C575   1.275       .  A
C575       C1741   1.481       .  S
O576       Zr577   2.436       .  S
O576        H605   0.989       .  S
Zr577       O580   2.437       .  S
Zr577       O581   2.439       .  S
Zr577       O582   2.415       .  S
O578        C583   1.275       .  A
O579        H596   0.990       .  S
O579        H611   0.990       .  S
O580        H597   0.990       .  S
O581        H601   0.990       .  S
O581        H610   0.990       .  S
O582        C583   1.282   1_655  A
C583       C1853   1.490       .  S
O584        H603   0.990       .  S
O584        H607   0.989       .  S
O585        H599   0.990       .  S
O585        H606   0.990       .  S
O586        C590   1.282   1_565  A
O587        C590   1.294   1_655  A
O588        H598   0.990       .  S
O589        H602   0.990       .  S
C590       C1274   1.498       .  S
C613       C1261   1.599       .  S
C613       C1357   1.589       .  S
C613       C1386   1.568       .  S
C613       C1533   1.560   1_554  S
Zr614       O615   2.446       .  S
Zr614       O616   2.402       .  S
Zr614       O617   2.442       .  S
Zr614       O620   2.402       .  S
Zr614       O622   2.377   1_545  S
Zr614       O623   2.386   1_556  S
Zr614       O624   2.393   1_545  S
Zr614       O625   2.393       .  S
O615        H671   0.991       .  S
O615        H679   0.991       .  S
O616        C636   1.280   1_556  A
O617        C638   1.283   1_545  A
O618       Zr628   2.503       .  S
O618        C637   1.296   1_554  A
O619       Zr627   2.488       .  S
O619        C638   1.293       .  A
O620        C637   1.282       .  A
O621       Zr629   2.413   1_545  S
O621        C636   1.276       .  A
O622       Zr627   2.410       .  S
O622       Zr629   2.392   1_556  S
O623       Zr628   2.395       .  S
O623       Zr629   2.381   1_545  S
O623        H658   0.965       .  S
O624       Zr627   2.399       .  S
O624       Zr644   2.388   1_565  S
O624        H661   0.965       .  S
O625       Zr628   2.400   1_556  S
O625       Zr644   2.372       .  S
Zr626       O651   2.442       .  S
Zr626       O645   2.403       .  S
Zr626       O653   2.434       .  S
Zr626       O641   2.433       .  S
Zr626       O632   2.392   1_565  S
Zr626       O633   2.401       .  S
Zr626       O634   2.384   1_554  S
Zr626       O635   2.390   1_565  S
Zr627       O646   2.435       .  S
Zr627       O639   2.434       .  S
Zr627       O640   2.470       .  S
Zr627       O633   2.415   1_556  S
Zr627       O634   2.399       .  S
Zr628       O630   2.433       .  S
Zr628       O652   2.437       .  S
Zr628       O654   2.495       .  S
Zr628       O632   2.403       .  S
Zr628       O635   2.396       .  S
Zr629       O655   2.435   1_565  S
Zr629       O656   2.437       .  S
Zr629       O631   2.438       .  S
Zr629       O632   2.389   1_565  S
Zr629       O633   2.391       .  S
O630        H667   0.990       .  S
O631        H662   0.989       .  S
O631        H676   0.990       .  S
O633        H659   0.965       .  S
O634       Zr644   2.384   1_565  S
O635       Zr644   2.386   1_554  S
O635        H660   0.966       .  S
C636       C1258   1.487       .  S
C637       C1565   1.509       .  S
C638       C2125   1.502       .  S
O639        H675   0.990       .  S
O640        C642   1.291   1_556  A
O641        C642   1.283       .  A
C642       C2186   1.487       .  S
O643       Zr644   2.437       .  S
O643        H672   0.990       .  S
Zr644       O647   2.438   1_545  S
Zr644       O648   2.436       .  S
Zr644       O649   2.383   1_545  S
O645        C650   1.277       .  A
O646        H663   0.990       .  S
O646        H678   0.989       .  S
O647        H664   0.990       .  S
O648        H668   0.990       .  S
O648        H677   0.990       .  S
O649        C650   1.274   1_556  A
C650       C2205   1.442       .  S
O651        H670   0.990       .  S
O651        H674   0.991       .  S
O652        H666   0.990       .  S
O652        H673   0.990       .  S
O653        C657   1.284   1_565  A
O654        C657   1.297       .  A
O655        H665   0.990       .  S
O656        H669   0.990       .  S
C657       C1610   1.515       .  S
Zr680       O681   2.441       .  S
Zr680       O682   2.411       .  S
Zr680       O683   2.454       .  S
Zr680       O686   2.379       .  S
Zr680       O688   2.369       .  S
Zr680       O689   2.391       .  S
Zr680       O690   2.394   1_545  S
Zr680       O691   2.405       .  S
O681        H737   0.991       .  S
O681        H745   0.990       .  S
O682        C702   1.278       .  A
O683        C704   1.287       .  A
O684       Zr694   2.516       .  S
O684        C703   1.300       .  A
O685       Zr693   2.492       .  S
O685        C704   1.293   1_565  A
O686        C703   1.274       .  A
O687       Zr695   2.398       .  S
O687        C702   1.275       .  A
O688       Zr693   2.402   1_545  S
O688       Zr695   2.400       .  S
O689       Zr694   2.407       .  S
O689       Zr695   2.373       .  S
O689        H724   0.965       .  S
O690       Zr693   2.396       .  S
O690       Zr710   2.389       .  S
O690        H727   0.964       .  S
O691       Zr694   2.409       .  S
O691       Zr710   2.384   1_545  S
Zr692       O717   2.447       .  S
Zr692       O711   2.437       .  S
Zr692       O719   2.430       .  S
Zr692       O707   2.410       .  S
Zr692       O698   2.399   1_565  S
Zr692       O699   2.413   1_565  S
Zr692       O700   2.381       .  S
Zr692       O701   2.384       .  S
Zr693       O712   2.436       .  S
Zr693       O705   2.435   1_565  S
Zr693       O706   2.439       .  S
Zr693       O699   2.416   1_565  S
Zr693       O700   2.411       .  S
Zr694       O696   2.434       .  S
Zr694       O718   2.439       .  S
Zr694       O720   2.525       .  S
Zr694       O698   2.390       .  S
Zr694       O701   2.412   1_545  S
Zr695       O721   2.434       .  S
Zr695       O722   2.437       .  S
Zr695       O697   2.437       .  S
Zr695       O698   2.384       .  S
Zr695       O699   2.369       .  S
O696        H733   0.990       .  S
O697        H728   0.990       .  S
O697        H742   0.990       .  S
O699        H725   0.963       .  S
O700       Zr710   2.386       .  S
O701       Zr710   2.387       .  S
O701        H726   0.966       .  S
C702       C1242   1.452       .  S
C703       C1901   1.494       .  S
C704       C1597   1.528       .  S
O705        H741   0.990       .  S
O706        C708   1.284       .  A
O707        C708   1.278       .  A
C708       C1757   1.457       .  S
O709       Zr710   2.437       .  S
O709        H738   0.990       .  S
Zr710       O713   2.433       .  S
Zr710       O714   2.442       .  S
Zr710       O715   2.402       .  S
O711        C716   1.284       .  A
O712        H729   0.990       .  S
O712        H744   0.990       .  S
O713        H730   0.990       .  S
O714        H734   0.990       .  S
O714        H743   0.990       .  S
O715        C716   1.275       .  A
C716       C1226   1.468       .  S
O717        H736   0.991       .  S
O717        H740   0.991       .  S
O718        H732   0.990       .  S
O718        H739   0.990       .  S
O719        C723   1.282   1_565  A
O720        C723   1.303       .  A
O721        H731   0.990       .  S
O722        H735   0.990       .  S
C723       C2141   1.516       .  S
C746       C1210   1.592       .  S
C746       C1245   1.591       .  S
C746       C1322   1.588       .  S
C746       C1645   1.574       .  S
Zr747       O748   2.442       .  S
Zr747       O749   2.402       .  S
Zr747       O750   2.450       .  S
Zr747       O753   2.410       .  S
Zr747       O755   2.378       .  S
Zr747       O756   2.398   1_554  S
Zr747       O757   2.383       .  S
Zr747       O758   2.404   1_655  S
O748        H804   0.990   1_655  S
O748        H812   0.990       .  S
O749        C769   1.277       .  A
O750        C771   1.287       .  A
O751       Zr761   2.464       .  S
O751        C770   1.291   1_556  A
O752       Zr760   2.493       .  S
O752        C771   1.297       .  A
O753        C770   1.280   1_655  A
O754       Zr762   2.457       .  S
O754        C769   1.287   1_556  A
O755       Zr760   2.402       .  S
O755       Zr762   2.379   1_554  S
O756       Zr761   2.415   1_655  S
O756       Zr762   2.365       .  S
O756        H791   0.966       .  S
O757       Zr760   2.404       .  S
O757       Zr777   2.381   1_655  S
O757        H794   0.966   1_655  S
O758       Zr761   2.412   1_554  S
O758       Zr777   2.370       .  S
Zr759       O784   2.442       .  S
Zr759       O778   2.445       .  S
Zr759       O786   2.423       .  S
Zr759       O774   2.398       .  S
Zr759       O765   2.397   1_455  S
Zr759       O766   2.412   1_455  S
Zr759       O767   2.376   1_556  S
Zr759       O768   2.373       .  S
Zr760       O779   2.435       .  S
Zr760       O772   2.434       .  S
Zr760       O773   2.499       .  S
Zr760       O766   2.405   1_554  S
Zr760       O767   2.391   1_655  S
Zr761       O763   2.434       .  S
Zr761       O785   2.434   1_455  S
Zr761       O787   2.532       .  S
Zr761       O765   2.383   1_455  S
Zr761       O768   2.386       .  S
Zr762       O788   2.439       .  S
Zr762       O789   2.437       .  S
Zr762       O764   2.435       .  S
Zr762       O765   2.410       .  S
Zr762       O766   2.406       .  S
O763        H800   0.990       .  S
O764        H795   0.990       .  S
O764        H809   0.990       .  S
O766        H792   0.964       .  S
O767       Zr777   2.382       .  S
O768       Zr777   2.386   1_556  S
O768        H793   0.966       .  S
C769       C2061   1.483       .  S
C770       C1421   1.472       .  S
C771       C1693   1.528       .  S
O772        H808   0.990       .  S
O773        C775   1.296   1_554  A
O774        C775   1.277   1_455  A
C775       C1194   1.489       .  S
O776       Zr777   2.439       .  S
O776        H805   0.990       .  S
Zr777       O780   2.436       .  S
Zr777       O781   2.438       .  S
Zr777       O782   2.373       .  S
O778        C783   1.286       .  A
O779        H796   0.990   1_655  S
O779        H811   0.990       .  S
O780        H797   0.990       .  S
O781        H801   0.990       .  S
O781        H810   0.990       .  S
O782        C783   1.273   1_554  A
C783       C1997   1.483       .  S
O784        H803   0.990   1_455  S
O784        H807   0.989       .  S
O785        H799   0.990       .  S
O785        H806   0.990   1_655  S
O786        C790   1.281       .  A
O787        C790   1.303       .  A
O788        H798   0.990       .  S
O789        H802   0.990       .  S
C790       C1965   1.538       .  S
Zr813       O814   2.439       .  S
Zr813       O815   2.433       .  S
Zr813       O816   2.423       .  S
Zr813       O819   2.396   1_554  S
Zr813       O821   2.375       .  S
Zr813       O822   2.387   1_554  S
Zr813       O823   2.404       .  S
Zr813       O824   2.400   1_554  S
O814        H870   0.990       .  S
O814        H878   0.989       .  S
O815        C835   1.283       .  A
O816        C837   1.281       .  A
O817       Zr827   2.453       .  S
O817        C836   1.282       .  A
O818       Zr826   2.466       .  S
O818        C837   1.292       .  A
O819        C836   1.271       .  A
O820       Zr828   2.441   1_554  S
O820        C835   1.284       .  A
O821       Zr826   2.400       .  S
O821       Zr828   2.386   1_554  S
O822       Zr827   2.406       .  S
O822       Zr828   2.375       .  S
O822        H857   0.966       .  S
O823       Zr826   2.400       .  S
O823       Zr843   2.379   1_554  S
O823        H860   0.961       .  S
O824       Zr827   2.394       .  S
O824       Zr843   2.388       .  S
Zr825       O850   2.449       .  S
Zr825       O844   2.449       .  S
Zr825       O852   2.432       .  S
Zr825       O840   2.386       .  S
Zr825       O831   2.400       .  S
Zr825       O832   2.421       .  S
Zr825       O833   2.373   1_556  S
Zr825       O834   2.376       .  S
Zr826       O845   2.437       .  S
Zr826       O838   2.435       .  S
Zr826       O839   2.465       .  S
Zr826       O832   2.404   1_554  S
Zr826       O833   2.401       .  S
Zr827       O829   2.434       .  S
Zr827       O851   2.437       .  S
Zr827       O853   2.462       .  S
Zr827       O831   2.388       .  S
Zr827       O834   2.410       .  S
Zr828       O854   2.434       .  S
Zr828       O855   2.437       .  S
Zr828       O830   2.438   1_556  S
Zr828       O831   2.393       .  S
Zr828       O832   2.397       .  S
O829        H866   0.990       .  S
O830        H861   0.990       .  S
O830        H875   0.990       .  S
O832        H858   0.964   1_556  S
O833       Zr843   2.373   1_554  S
O834       Zr843   2.392       .  S
O834        H859   0.966       .  S
C835       C2173   1.487       .  S
C836       C2013   1.470       .  S
C837       C1178   1.487       .  S
O838        H874   0.990       .  S
O839        C841   1.291       .  A
O840        C841   1.274   1_556  A
C841       C2074   1.471       .  S
O842       Zr843   2.437   1_554  S
O842        H871   0.990       .  S
Zr843       O846   2.437   1_556  S
Zr843       O847   2.438       .  S
Zr843       O848   2.393       .  S
O844        C849   1.283       .  A
O845        H862   0.990       .  S
O845        H877   0.990       .  S
O846        H863   0.990       .  S
O847        H867   0.990       .  S
O847        H876   0.990       .  S
O848        C849   1.274       .  A
C849       C1549   1.470       .  S
O850        H869   0.990       .  S
O850        H873   0.990       .  S
O851        H865   0.990       .  S
O851        H872   0.990       .  S
O852        C856   1.282       .  A
O853        C856   1.288       .  A
O854        H864   0.990       .  S
O855        H868   0.990       .  S
C856       C2365   1.495       .  S
Zr879       O880   2.444       .  S
Zr879       O881   2.412       .  S
Zr879       O882   2.398       .  S
Zr879       O885   2.422       .  S
Zr879       O887   2.387       .  S
Zr879       O888   2.377       .  S
Zr879       O889   2.401   1_455  S
Zr879       O890   2.384       .  S
O880        H936   0.990       .  S
O880        H944   0.990       .  S
O881        C901   1.279       .  A
O882        C903   1.276       .  A
O883       Zr893   2.513       .  S
O883        C902   1.300       .  A
O884       Zr892   2.460   1_455  S
O884        C903   1.291       .  A
O885        C902   1.282       .  A
O886       Zr894   2.411       .  S
O886        C901   1.280       .  A
O887       Zr892   2.407   1_455  S
O887       Zr894   2.383       .  S
O888       Zr893   2.398       .  S
O888       Zr894   2.383       .  S
O888        H923   0.966       .  S
O889       Zr892   2.413       .  S
O889       Zr909   2.376       .  S
O889        H926   0.965       .  S
O890       Zr893   2.394       .  S
O890       Zr909   2.382   1_455  S
Zr891       O916   2.442       .  S
Zr891       O910   2.425       .  S
Zr891       O918   2.364       .  S
Zr891       O906   2.425       .  S
Zr891       O897   2.400   1_655  S
Zr891       O898   2.389   1_655  S
Zr891       O899   2.365       .  S
Zr891       O900   2.386       .  S
Zr892       O911   2.437       .  S
Zr892       O904   2.435   1_655  S
Zr892       O905   2.499       .  S
Zr892       O898   2.392   1_655  S
Zr892       O899   2.391       .  S
Zr893       O895   2.436   1_455  S
Zr893       O917   2.436       .  S
Zr893       O919   2.501       .  S
Zr893       O897   2.395       .  S
Zr893       O900   2.402   1_455  S
Zr894       O920   2.435       .  S
Zr894       O921   2.437       .  S
Zr894       O896   2.435       .  S
Zr894       O897   2.384       .  S
Zr894       O898   2.402       .  S
O895        H932   0.990       .  S
O896        H927   0.990       .  S
O896        H941   0.990       .  S
O898        H924   0.966       .  S
O899       Zr909   2.388       .  S
O900       Zr909   2.376       .  S
O900        H925   0.965       .  S
C901       C1162   1.483       .  S
C902       C1949   1.508       .  S
C903       C1469   1.473       .  S
O904        H940   0.990       .  S
O905        C907   1.297       .  A
O906        C907   1.280       .  A
C907       C1677   1.503       .  S
O908       Zr909   2.436       .  S
O908        H937   0.990       .  S
Zr909       O912   2.434       .  S
Zr909       O913   2.436       .  S
Zr909       O914   2.405       .  S
O910        C915   1.285       .  A
O911        H928   0.990       .  S
O911        H943   0.990       .  S
O912        H929   0.990       .  S
O913        H933   0.989       .  S
O913        H942   0.990       .  S
O914        C915   1.276       .  A
C915       C2333   1.497       .  S
O916        H935   0.990       .  S
O916        H939   0.990       .  S
O917        H931   0.990       .  S
O917        H938   0.990       .  S
O918        C922   1.273       .  A
O919        C922   1.299   1_455  A
O920        H930   0.990       .  S
O921        H934   0.990       .  S
C922       C1834   1.487       .  S
C945       C1149   1.595       .  S
C945       C1165   1.577       .  S
C945       C1309   1.593       .  S
C945       C1517   1.576       .  S
Zr946       O947   2.443       .  S
Zr946       O948   2.437       .  S
Zr946       O949   2.423       .  S
Zr946       O952   2.374       .  S
Zr946       O954   2.371       .  S
Zr946       O955   2.386       .  S
Zr946       O956   2.386       .  S
Zr946       O957   2.411       .  S
O947       H1003   0.990       .  S
O947       H1011   0.990       .  S
O948        C968   1.282       .  A
O949        C970   1.282       .  A
O950       Zr960   2.478       .  S
O950        C969   1.293       .  A
O951       Zr959   2.486       .  S
O951        C970   1.294       .  A
O952        C969   1.271       .  A
O953       Zr961   2.432       .  S
O953        C968   1.283       .  A
O954       Zr959   2.411       .  S
O954       Zr961   2.395       .  S
O955       Zr960   2.400       .  S
O955       Zr961   2.374       .  S
O955        H990   0.966       .  S
O956       Zr959   2.386       .  S
O956       Zr976   2.379       .  S
O956        H993   0.964       .  S
O957       Zr960   2.413       .  S
O957       Zr976   2.400       .  S
Zr958       O983   2.448       .  S
Zr958       O977   2.412       .  S
Zr958       O985   2.385       .  S
Zr958       O973   2.390       .  S
Zr958       O964   2.401       .  S
Zr958       O965   2.399       .  S
Zr958       O967   2.369       .  S
Zr958       O966   2.285       .  S
Zr959       O978   2.429       .  S
Zr959       O971   2.448       .  S
Zr959       O972   2.447       .  S
Zr959       O965   2.410       .  S
Zr959       O966   2.323       .  S
Zr960       O962   2.436       .  S
Zr960       O984   2.440       .  S
Zr960       O986   2.511       .  S
Zr960       O964   2.384       .  S
Zr960       O967   2.394       .  S
Zr961       O987   2.437       .  S
Zr961       O988   2.437       .  S
Zr961       O963   2.435       .  S
Zr961       O964   2.394       .  S
Zr961       O965   2.398       .  S
O962        H999   0.990       .  S
O963        H994   0.990       .  S
O963       H1008   0.990       .  S
O965        H991   0.965       .  S
O966       Zr976   2.299       .  S
O967       Zr976   2.373       .  S
O967        H992   0.965       .  S
C968       C1213   1.507       .  S
C969       C1146   1.466       .  S
C970       C1130   1.487       .  S
O971       H1007   0.990       .  S
O972        C974   1.283       .  A
O973        C974   1.268       .  A
C974       C2317   1.470       .  S
O975       Zr976   2.446       .  S
O975       H1004   0.990       .  S
Zr976       O979   2.431       .  S
Zr976       O980   2.451       .  S
Zr976       O981   2.425       .  S
O977        C982   1.282       .  A
O978        H995   0.990       .  S
O978       H1010   0.989       .  S
O979        H996   0.989       .  S
O980       H1000   0.990       .  S
O980       H1009   0.990       .  S
O981        C982   1.279       .  A
C982       C1114   1.497       .  S
O983       H1002   0.989       .  S
O983       H1006   0.990       .  S
O984        H998   0.990       .  S
O984       H1005   0.990       .  S
O985        C989   1.277       .  A
O986        C989   1.300       .  A
O987        H997   0.990       .  S
O988       H1001   0.990       .  S
C989       C2381   1.493       .  S
C1012      C1133   1.580       .  S
C1012      C1181   1.590       .  S
C1012      C1290   1.610       .  S
C1012      C1789   1.623       .  S
C1013      C1101   1.617   1_655  S
C1013      C1197   1.621       .  S
C1013      C1370   1.576       .  S
C1013      C2605   1.622       .  S
Zr1014     O1015   2.431       .  S
Zr1014     O1016   2.411       .  S
Zr1014     O1017   2.429       .  S
Zr1014     O1020   2.399       .  S
Zr1014     O1022   2.371       .  S
Zr1014     O1023   2.381       .  S
Zr1014     O1024   2.392       .  S
Zr1014     O1025   2.401       .  S
O1015      H1071   0.990       .  S
O1015      H1079   0.989       .  S
O1016      C1036   1.283       .  A
O1017      C1038   1.282       .  A
O1018     Zr1028   2.533       .  S
O1018      C1037   1.305       .  A
O1019     Zr1027   2.483       .  S
O1019      C1038   1.292       .  A
O1020      C1037   1.278       .  A
O1021     Zr1029   2.369       .  S
O1021      C1036   1.270       .  A
O1022     Zr1027   2.398       .  S
O1022     Zr1029   2.393       .  S
O1023     Zr1028   2.386       .  S
O1023     Zr1029   2.381       .  S
O1023      H1058   0.967       .  S
O1024     Zr1027   2.399       .  S
O1024     Zr1044   2.387       .  S
O1024      H1061   0.965       .  S
O1025     Zr1028   2.394       .  S
O1025     Zr1044   2.403       .  S
Zr1026     O1051   2.443       .  S
Zr1026     O1045   2.415       .  S
Zr1026     O1053   2.426       .  S
Zr1026     O1041   2.421       .  S
Zr1026     O1032   2.392       .  S
Zr1026     O1033   2.388       .  S
Zr1026     O1034   2.374       .  S
Zr1026     O1035   2.387       .  S
Zr1027     O1046   2.437       .  S
Zr1027     O1039   2.433       .  S
Zr1027     O1040   2.459       .  S
Zr1027     O1033   2.408       .  S
Zr1027     O1034   2.402       .  S
Zr1028     O1030   2.435       .  S
Zr1028     O1052   2.437       .  S
Zr1028     O1054   2.495       .  S
Zr1028     O1032   2.403       .  S
Zr1028     O1035   2.406       .  S
Zr1029     O1055   2.436       .  S
Zr1029     O1056   2.434       .  S
Zr1029     O1031   2.437       .  S
Zr1029     O1032   2.372       .  S
Zr1029     O1033   2.369       .  S
O1030      H1067   0.990       .  S
O1031      H1062   0.990       .  S
O1031      H1076   0.990       .  S
O1033      H1059   0.964       .  S
O1034     Zr1044   2.379       .  S
O1035     Zr1044   2.378       .  S
O1035      H1060   0.964       .  S
C1036      C1981   1.459       .  S
C1037      C1098   1.517       .  S
C1038      C1914   1.497       .  S
O1039      H1075   0.990       .  S
O1040      C1042   1.289       .  A
O1041      C1042   1.284       .  A
C1042      C1085   1.489       .  S
O1043     Zr1044   2.436       .  S
O1043      H1072   0.990       .  S
Zr1044     O1047   2.434       .  S
Zr1044     O1048   2.440       .  S
Zr1044     O1049   2.420       .  S
O1045      C1050   1.281       .  A
O1046      H1063   0.991       .  S
O1046      H1078   0.990       .  S
O1047      H1064   0.990       .  S
O1048      H1068   0.990       .  S
O1048      H1077   0.990       .  S
O1049      C1050   1.279       .  A
C1050      C1722   1.469       .  S
O1051      H1070   0.990       .  S
O1051      H1074   0.990       .  S
O1052      H1066   0.990       .  S
O1052      H1073   0.990       .  S
O1053      C1057   1.280       .  A
O1054      C1057   1.297       .  A
O1055      H1065   0.990       .  S
O1056      H1069   0.989       .  S
C1057      C2090   1.494       .  S
C1080      C1082   1.620       .  S
C1080      C1117   1.594       .  S
C1080      C1229   1.600       .  S
C1080      C2557   1.579       .  S
C1081      C1082   1.438       .  A
C1081      C1086   1.394       .  A
C1081      H1088   1.068       .  S
C1082      C1083   1.450       .  A
C1083      C1090   1.519       .  S
C1083      C1084   1.421       .  A
C1084      C1085   1.402       .  A
C1084      H1089   1.085       .  S
C1085      C1086   1.404       .  A
C1086      C1087   1.531       .  S
C1087      F1091   1.386       .  S
C1087      F1092   1.382       .  S
C1087      F1093   1.384       .  S
C1090      F1094   1.384       .  S
C1090      F1095   1.364       .  S
C1090      F1096   1.384       .  S
C1097      C1098   1.390       .  A
C1097      C1102   1.420       .  A
C1097      H1104   1.085       .  S
C1098      C1099   1.425       .  A
C1099      C1106   1.516       .  S
C1099      C1100   1.418       .  A
C1100      C1101   1.417       .  A
C1100      H1105   1.083       .  S
C1101      C1102   1.467       .  A
C1102      C1103   1.529       .  S
C1103      F1107   1.381       .  S
C1103      F1108   1.362       .  S
C1103      F1109   1.387       .  S
C1106      F1110   1.382       .  S
C1106      F1111   1.382       .  S
C1106      F1112   1.383       .  S
C1113      C1114   1.397       .  A
C1113      C1118   1.409       .  A
C1113      H1120   1.085       .  S
C1114      C1115   1.411       .  A
C1115      C1122   1.522       .  S
C1115      C1116   1.406       .  A
C1116      C1117   1.425       .  A
C1116      H1121   1.071       .  S
C1117      C1118   1.464       .  A
C1118      C1119   1.546       .  S
C1119      F1123   1.388       .  S
C1119      F1124   1.366       .  S
C1119      F1125   1.382       .  S
C1122      F1126   1.382       .  S
C1122      F1127   1.383       .  S
C1122      F1128   1.386       .  S
C1129      C1130   1.396       .  A
C1129      C1134   1.420       .  A
C1129      H1136   1.083       .  S
C1130      C1131   1.410       .  A
C1131      C1138   1.520       .  S
C1131      C1132   1.405       .  A
C1132      C1133   1.419       .  A
C1132      H1137   1.072       .  S
C1133      C1134   1.454       .  A
C1134      C1135   1.532       .  S
C1135      F1139   1.380       .  S
C1135      F1140   1.386       .  S
C1135      F1141   1.373       .  S
C1138      F1142   1.382       .  S
C1138      F1143   1.381       .  S
C1138      F1144   1.386       .  S
C1145      C1146   1.394       .  A
C1145      C1150   1.413       .  A
C1145      H1152   1.085       .  S
C1146      C1147   1.407       .  A
C1147      C1154   1.522       .  S
C1147      C1148   1.397       .  A
C1148      C1149   1.421       .  A
C1148      H1153   1.072       .  S
C1149      C1150   1.456       .  A
C1150      C1151   1.531       .  S
C1151      F1155   1.384       .  S
C1151      F1156   1.384       .  S
C1151      F1157   1.370       .  S
C1154      F1158   1.382       .  S
C1154      F1159   1.381       .  S
C1154      F1160   1.384       .  S
C1161      C1162   1.403       .  A
C1161      C1166   1.412       .  A
C1161      H1168   1.083       .  S
C1162      C1163   1.406       .  A
C1163      C1170   1.520       .  S
C1163      C1164   1.389       .  A
C1164      C1165   1.420       .  A
C1164      H1169   1.074       .  S
C1165      C1166   1.448       .  A
C1166      C1167   1.531       .  S
C1167      F1171   1.385       .  S
C1167      F1172   1.382       .  S
C1167      F1173   1.373       .  S
C1170      F1174   1.379       .  S
C1170      F1175   1.384       .  S
C1170      F1176   1.381       .  S
C1177      C1178   1.395       .  A
C1177      C1182   1.413       .  A
C1177      H1184   1.086       .  S
C1178      C1179   1.416       .  A
C1179      C1186   1.524       .  S
C1179      C1180   1.399       .  A
C1180      C1181   1.422       .  A
C1180      H1185   1.081       .  S
C1181      C1182   1.456       .  A
C1182      C1183   1.531       .  S
C1183      F1187   1.386       .  S
C1183      F1188   1.383       .  S
C1183      F1189   1.363       .  S
C1186      F1190   1.381       .  S
C1186      F1191   1.381       .  S
C1186      F1192   1.386       .  S
C1193      C1194   1.402   1_455  A
C1193      C1198   1.430       .  A
C1193      H1200   1.083   1_556  S
C1194      C1195   1.400       .  A
C1195      C1202   1.519       .  S
C1195      C1196   1.398       .  A
C1196      C1197   1.428       .  A
C1196      H1201   1.076       .  S
C1197      C1198   1.456   1_655  A
C1198      C1199   1.530       .  S
C1199      F1203   1.384       .  S
C1199      F1204   1.377       .  S
C1199      F1205   1.374       .  S
C1202      F1206   1.384       .  S
C1202      F1207   1.378       .  S
C1202      F1208   1.385       .  S
C1209      C1210   1.420       .  A
C1209      C1214   1.405       .  A
C1209      H1216   1.067       .  S
C1210      C1211   1.442       .  A
C1211      C1218   1.528       .  S
C1211      C1212   1.416       .  A
C1212      C1213   1.408       .  A
C1212      H1217   1.084       .  S
C1213      C1214   1.420       .  A
C1214      C1215   1.525       .  S
C1215      F1219   1.379       .  S
C1215      F1220   1.383       .  S
C1215      F1221   1.382       .  S
C1218      F1222   1.382       .  S
C1218      F1223   1.375       .  S
C1218      F1224   1.383       .  S
C1225      C1226   1.399       .  A
C1225      C1230   1.424       .  A
C1225      H1232   1.082       .  S
C1226      C1227   1.394       .  A
C1227      C1234   1.521       .  S
C1227      C1228   1.384       .  A
C1228      C1229   1.433       .  A
C1228      H1233   1.079       .  S
C1229      C1230   1.455       .  A
C1230      C1231   1.533       .  S
C1231      F1235   1.385       .  S
C1231      F1236   1.379       .  S
C1231      F1237   1.376       .  S
C1234      F1238   1.380       .  S
C1234      F1239   1.383       .  S
C1234      F1240   1.385       .  S
C1241      C1242   1.384       .  A
C1241      C1246   1.396       .  A
C1241      H1248   1.087       .  S
C1242      C1243   1.404       .  A
C1243      C1250   1.521       .  S
C1243      C1244   1.401       .  A
C1244      C1245   1.426       .  A
C1244      H1249   1.077       .  S
C1245      C1246   1.459       .  A
C1246      C1247   1.536       .  S
C1247      F1251   1.384       .  S
C1247      F1252   1.367       .  S
C1247      F1253   1.379       .  S
C1250      F1254   1.383       .  S
C1250      F1255   1.381       .  S
C1250      F1256   1.383       .  S
C1257      C1258   1.400   1_556  A
C1257      C1262   1.407       .  A
C1257      H1264   1.079       .  S
C1258      C1259   1.411       .  A
C1259      C1266   1.524       .  S
C1259      C1260   1.394       .  A
C1260      C1261   1.421       .  A
C1260      H1265   1.068       .  S
C1261      C1262   1.455   1_554  A
C1262      C1263   1.534       .  S
C1263      F1267   1.387       .  S
C1263      F1268   1.378       .  S
C1263      F1269   1.372       .  S
C1266      F1270   1.382       .  S
C1266      F1271   1.383       .  S
C1266      F1272   1.386       .  S
C1273      C1274   1.390       .  A
C1273      C1278   1.404       .  A
C1273      H1280   1.085       .  S
C1274      C1275   1.408       .  A
C1275      C1282   1.514       .  S
C1275      C1276   1.424       .  A
C1276      C1277   1.434       .  A
C1276      H1281   1.073       .  S
C1277      C1278   1.455       .  A
C1278      C1279   1.525       .  S
C1279      F1283   1.384   1_545  S
C1279      F1284   1.383       .  S
C1279      F1285   1.359       .  S
C1282      F1286   1.383   1_455  S
C1282      F1287   1.383   1_445  S
C1282      F1288   1.385   1_445  S
C1289      C1290   1.432       .  A
C1289      C1294   1.411       .  A
C1289      H1296   1.069       .  S
C1290      C1291   1.449       .  A
C1291      C1298   1.535       .  S
C1291      C1292   1.418       .  A
C1292      C1293   1.407       .  A
C1292      H1297   1.080       .  S
C1293      C1294   1.409       .  A
C1294      C1295   1.521       .  S
C1295      F1299   1.385       .  S
C1295      F1300   1.382       .  S
C1295      F1301   1.383       .  S
C1298      F1302   1.385       .  S
C1298      F1303   1.374       .  S
C1298      F1304   1.381       .  S
C1305      C1306   1.396       .  A
C1305      C1310   1.424       .  A
C1305      H1312   1.083       .  S
C1306      C1307   1.411       .  A
C1307      C1314   1.511       .  S
C1307      C1308   1.388       .  A
C1308      C1309   1.410       .  A
C1308      H1313   1.075       .  S
C1309      C1310   1.461       .  A
C1310      C1311   1.535       .  S
C1311      F1315   1.378       .  S
C1311      F1316   1.375       .  S
C1311      F1317   1.385       .  S
C1314      F1318   1.384       .  S
C1314      F1319   1.365       .  S
C1314      F1320   1.382       .  S
C1321      C1322   1.432       .  A
C1321      C1326   1.389       .  A
C1321      H1328   1.080       .  S
C1322      C1323   1.447       .  A
C1323      C1330   1.533       .  S
C1323      C1324   1.406       .  A
C1324      C1325   1.393       .  A
C1324      H1329   1.087       .  S
C1325      C1326   1.409       .  A
C1326      C1327   1.531       .  S
C1327      F1331   1.383       .  S
C1327      F1332   1.380       .  S
C1327      F1333   1.381       .  S
C1330      F1334   1.369       .  S
C1330      F1335   1.380       .  S
C1330      F1336   1.387       .  S
C1337      C1338   1.433       .  A
C1337      C1342   1.406       .  A
C1337      H1344   1.079       .  S
C1338      C1339   1.467       .  A
C1339      C1346   1.538       .  S
C1339      C1340   1.423       .  A
C1340      C1341   1.396       .  A
C1340      H1345   1.086       .  S
C1341      C1342   1.397       .  A
C1342      C1343   1.519       .  S
C1343      F1347   1.385       .  S
C1343      F1348   1.383       .  S
C1343      F1349   1.383       .  S
C1346      F1350   1.383       .  S
C1346      F1351   1.365   1_545  S
C1346      F1352   1.387       .  S
C1353      C1354   1.384       .  A
C1353      C1358   1.404       .  A
C1353      H1360   1.084       .  S
C1354      C1355   1.398       .  A
C1355      C1362   1.518       .  S
C1355      C1356   1.402       .  A
C1356      C1357   1.430       .  A
C1356      H1361   1.077       .  S
C1357      C1358   1.447       .  A
C1358      C1359   1.516       .  S
C1359      F1363   1.363       .  S
C1359      F1364   1.376   1_554  S
C1359      F1365   1.380       .  S
C1362      F1366   1.383       .  S
C1362      F1367   1.383       .  S
C1362      F1368   1.384       .  S
C1369      C1370   1.429       .  A
C1369      C1374   1.423       .  A
C1369      H1376   1.072       .  S
C1370      C1371   1.442       .  A
C1371      C1378   1.540       .  S
C1371      C1372   1.408       .  A
C1372      C1373   1.408       .  A
C1372      H1377   1.074       .  S
C1373      C1374   1.406       .  A
C1374      C1375   1.513   1_556  S
C1375      F1379   1.384       .  S
C1375      F1380   1.383       .  S
C1375      F1381   1.382   1_655  S
C1378      F1382   1.375       .  S
C1378      F1383   1.381       .  S
C1378      F1384   1.384       .  S
C1385      C1386   1.425   1_556  A
C1385      C1390   1.397       .  A
C1385      H1392   1.078       .  S
C1386      C1387   1.446       .  A
C1387      C1394   1.532       .  S
C1387      C1388   1.409       .  A
C1388      C1389   1.406       .  A
C1388      H1393   1.085       .  S
C1389      C1390   1.411   1_554  A
C1390      C1391   1.520       .  S
C1391      F1395   1.385       .  S
C1391      F1396   1.380       .  S
C1391      F1397   1.384       .  S
C1394      F1398   1.383       .  S
C1394      F1399   1.368       .  S
C1394      F1400   1.386       .  S
C1401      C1402   1.405   1_545  A
C1401      C1406   1.417       .  A
C1401      H1408   1.079       .  S
C1402      C1403   1.414       .  A
C1403      C1410   1.516       .  S
C1403      C1404   1.422       .  A
C1404      C1405   1.434   1_565  A
C1404      H1409   1.082       .  S
C1405      C1406   1.461       .  A
C1406      C1407   1.541       .  S
C1407      F1411   1.378       .  S
C1407      F1412   1.387       .  S
C1407      F1413   1.375       .  S
C1410      F1414   1.383       .  S
C1410      F1415   1.383       .  S
C1410      F1416   1.385       .  S
C1417      C1418   1.433   1_655  A
C1417      C1422   1.403       .  A
C1417      H1424   1.081       .  S
C1418      C1419   1.468       .  A
C1419      C1426   1.539       .  S
C1419      C1420   1.415       .  A
C1420      C1421   1.388       .  A
C1420      H1425   1.085       .  S
C1421      C1422   1.399   1_455  A
C1422      C1423   1.516   1_554  S
C1423      F1427   1.382       .  S
C1423      F1428   1.383       .  S
C1423      F1429   1.380   1_556  S
C1426      F1430   1.369       .  S
C1426      F1431   1.380       .  S
C1426      F1432   1.387       .  S
C1433      C1434   1.424       .  A
C1433      C1438   1.398       .  A
C1433      H1440   1.078       .  S
C1434      C1435   1.451       .  A
C1435      C1442   1.530       .  S
C1435      C1436   1.411       .  A
C1436      C1437   1.406       .  A
C1436      H1441   1.085       .  S
C1437      C1438   1.410       .  A
C1438      C1439   1.521       .  S
C1439      F1443   1.385       .  S
C1439      F1444   1.382       .  S
C1439      F1445   1.383       .  S
C1442      F1446   1.387       .  S
C1442      F1447   1.374       .  S
C1442      F1448   1.365       .  S
C1449      C1450   1.420   1_655  A
C1449      C1454   1.403       .  A
C1449      H1456   1.078       .  S
C1450      C1451   1.445       .  A
C1451      C1458   1.518       .  S
C1451      C1452   1.410       .  A
C1452      C1453   1.390       .  A
C1452      H1457   1.083       .  S
C1453      C1454   1.404   1_455  A
C1454      C1455   1.517       .  S
C1455      F1459   1.384       .  S
C1455      F1460   1.382       .  S
C1455      F1461   1.382       .  S
C1458      F1462   1.380       .  S
C1458      F1463   1.385       .  S
C1458      F1464   1.363       .  S
C1465      C1466   1.432       .  A
C1465      C1470   1.404       .  A
C1465      H1472   1.077       .  S
C1466      C1467   1.460   1_455  A
C1467      C1474   1.520       .  S
C1467      C1468   1.407       .  A
C1468      C1469   1.388   1_655  A
C1468      H1473   1.087       .  S
C1469      C1470   1.407       .  A
C1470      C1471   1.520       .  S
C1471      F1475   1.383       .  S
C1471      F1476   1.382       .  S
C1471      F1477   1.382       .  S
C1474      F1478   1.382       .  S
C1474      F1479   1.355       .  S
C1474      F1480   1.388       .  S
C1481      C1482   1.429       .  A
C1481      C1486   1.397       .  A
C1481      H1488   1.080       .  S
C1482      C1483   1.460       .  A
C1483      C1490   1.541   1_655  S
C1483      C1484   1.401       .  A
C1484      C1485   1.388       .  A
C1484      H1489   1.088       .  S
C1485      C1486   1.399       .  A
C1486      C1487   1.520       .  S
C1487      F1491   1.384       .  S
C1487      F1492   1.384   1_655  S
C1487      F1493   1.383       .  S
C1490      F1494   1.362       .  S
C1490      F1495   1.385   1_455  S
C1490      F1496   1.386       .  S
C1497      C1498   1.395       .  A
C1497      C1502   1.413       .  A
C1497      H1504   1.085       .  S
C1498      C1499   1.427       .  A
C1499      C1506   1.522       .  S
C1499      C1500   1.417       .  A
C1500      C1501   1.420       .  A
C1500      H1505   1.084       .  S
C1501      C1502   1.447       .  A
C1502      C1503   1.524       .  S
C1503      F1507   1.387       .  S
C1503      F1508   1.375       .  S
C1503      F1509   1.380       .  S
C1506      F1510   1.383       .  S
C1506      F1511   1.382       .  S
C1506      F1512   1.382       .  S
C1513      C1514   1.383       .  A
C1513      C1518   1.394       .  A
C1513      H1520   1.087       .  S
C1514      C1515   1.398       .  A
C1515      C1522   1.519       .  S
C1515      C1516   1.398       .  A
C1516      C1517   1.423       .  A
C1516      H1521   1.071       .  S
C1517      C1518   1.457       .  A
C1518      C1519   1.535       .  S
C1519      F1523   1.379       .  S
C1519      F1524   1.369       .  S
C1519      F1525   1.381       .  S
C1522      F1526   1.385       .  S
C1522      F1527   1.384       .  S
C1522      F1528   1.382       .  S
C1529      C1530   1.380       .  A
C1529      C1534   1.397       .  A
C1529      H1536   1.088       .  S
C1530      C1531   1.393       .  A
C1531      C1538   1.517       .  S
C1531      C1532   1.395       .  A
C1532      C1533   1.425       .  A
C1532      H1537   1.080       .  S
C1533      C1534   1.463       .  A
C1534      C1535   1.536       .  S
C1535      F1539   1.387       .  S
C1535      F1540   1.360       .  S
C1535      F1541   1.383       .  S
C1538      F1542   1.383       .  S
C1538      F1543   1.381       .  S
C1538      F1544   1.384       .  S
C1545      C1546   1.422       .  A
C1545      C1550   1.417       .  A
C1545      H1552   1.068       .  S
C1546      C1547   1.465       .  A
C1547      C1554   1.539       .  S
C1547      C1548   1.395       .  A
C1548      C1549   1.380       .  A
C1548      H1553   1.088       .  S
C1549      C1550   1.404       .  A
C1550      C1551   1.513       .  S
C1551      F1555   1.383       .  S
C1551      F1556   1.384   1_556  S
C1551      F1557   1.383       .  S
C1554      F1558   1.381       .  S
C1554      F1559   1.360       .  S
C1554      F1560   1.389       .  S
C1561      C1562   1.434       .  A
C1561      C1566   1.430       .  A
C1561      H1568   1.076       .  S
C1562      C1563   1.449       .  A
C1563      C1570   1.538       .  S
C1563      C1564   1.401       .  A
C1564      C1565   1.396       .  A
C1564      H1569   1.080       .  S
C1565      C1566   1.414       .  A
C1566      C1567   1.513   1_556  S
C1567      F1571   1.385       .  S
C1567      F1572   1.383       .  S
C1567      F1573   1.383       .  S
C1570      F1574   1.374       .  S
C1570      F1575   1.381       .  S
C1570      F1576   1.385       .  S
C1577      C1578   1.385       .  A
C1577      C1582   1.410       .  A
C1577      H1584   1.079       .  S
C1578      C1579   1.412       .  A
C1579      C1586   1.515       .  S
C1579      C1580   1.420       .  A
C1580      C1581   1.426       .  A
C1580      H1585   1.073       .  S
C1581      C1582   1.460       .  A
C1582      C1583   1.533       .  S
C1583      F1587   1.386       .  S
C1583      F1588   1.376       .  S
C1583      F1589   1.380       .  S
C1586      F1590   1.383       .  S
C1586      F1591   1.383       .  S
C1586      F1592   1.384       .  S
C1593      C1594   1.424       .  A
C1593      C1598   1.428       .  A
C1593      H1600   1.071       .  S
C1594      C1595   1.455       .  A
C1595      C1602   1.539       .  S
C1595      C1596   1.416       .  A
C1596      C1597   1.405       .  A
C1596      H1601   1.080       .  S
C1597      C1598   1.421       .  A
C1598      C1599   1.516   1_545  S
C1599      F1603   1.385       .  S
C1599      F1604   1.383   1_565  S
C1599      F1605   1.382       .  S
C1602      F1606   1.381       .  S
C1602      F1607   1.376       .  S
C1602      F1608   1.386       .  S
C1609      C1610   1.411   1_565  A
C1609      C1614   1.429       .  A
C1609      H1616   1.085       .  S
C1610      C1611   1.406       .  A
C1611      C1618   1.525       .  S
C1611      C1612   1.409       .  A
C1612      C1613   1.444       .  A
C1612      H1617   1.070       .  S
C1613      C1614   1.446   1_545  A
C1614      C1615   1.516       .  S
C1615      F1619   1.384       .  S
C1615      F1620   1.384       .  S
C1615      F1621   1.363       .  S
C1618      F1622   1.382       .  S
C1618      F1623   1.383       .  S
C1618      F1624   1.386       .  S
C1625      C1626   1.392       .  A
C1625      C1630   1.413       .  A
C1625      H1632   1.082       .  S
C1626      C1627   1.409       .  A
C1627      C1634   1.516       .  S
C1627      C1628   1.414       .  A
C1628      C1629   1.423       .  A
C1628      H1633   1.074       .  S
C1629      C1630   1.461       .  A
C1630      C1631   1.539       .  S
C1631      F1635   1.385       .  S
C1631      F1636   1.380       .  S
C1631      F1637   1.377       .  S
C1634      F1638   1.383       .  S
C1634      F1639   1.382       .  S
C1634      F1640   1.385       .  S
C1641      C1642   1.398       .  A
C1641      C1646   1.401       .  A
C1641      H1648   1.086       .  S
C1642      C1643   1.393       .  A
C1643      C1650   1.525       .  S
C1643      C1644   1.393       .  A
C1644      C1645   1.432       .  A
C1644      H1649   1.063       .  S
C1645      C1646   1.451       .  A
C1646      C1647   1.531       .  S
C1647      F1651   1.385       .  S
C1647      F1652   1.382       .  S
C1647      F1653   1.373       .  S
C1650      F1654   1.377       .  S
C1650      F1655   1.384       .  S
C1650      F1656   1.381       .  S
C1657      C1658   1.426       .  A
C1657      C1662   1.410       .  A
C1657      H1664   1.071       .  S
C1658      C1659   1.464       .  A
C1659      C1666   1.542       .  S
C1659      C1660   1.411       .  A
C1660      C1661   1.394       .  A
C1660      H1665   1.078       .  S
C1661      C1662   1.419       .  A
C1662      C1663   1.524       .  S
C1663      F1667   1.384       .  S
C1663      F1668   1.383       .  S
C1663      F1669   1.382       .  S
C1666      F1670   1.370   1_655  S
C1666      F1671   1.371       .  S
C1666      F1672   1.386       .  S
C1673      C1674   1.433       .  A
C1673      C1678   1.409       .  A
C1673      H1680   1.071       .  S
C1674      C1675   1.466       .  A
C1675      C1682   1.538       .  S
C1675      C1676   1.433       .  A
C1676      C1677   1.399       .  A
C1676      H1681   1.082       .  S
C1677      C1678   1.402       .  A
C1678      C1679   1.521       .  S
C1679      F1683   1.385       .  S
C1679      F1684   1.383       .  S
C1679      F1685   1.383       .  S
C1682      F1686   1.374       .  S
C1682      F1687   1.375       .  S
C1682      F1688   1.386       .  S
C1689      C1690   1.427       .  A
C1689      C1694   1.409       .  A
C1689      H1696   1.067       .  S
C1690      C1691   1.447       .  A
C1691      C1698   1.527       .  S
C1691      C1692   1.432       .  A
C1692      C1693   1.412       .  A
C1692      H1697   1.083       .  S
C1693      C1694   1.423       .  A
C1694      C1695   1.529       .  S
C1695      F1699   1.386       .  S
C1695      F1700   1.379       .  S
C1695      F1701   1.383       .  S
C1698      F1702   1.385       .  S
C1698      F1703   1.377       .  S
C1698      F1704   1.381       .  S
C1705      C1706   1.432       .  A
C1705      C1710   1.395       .  A
C1705      H1712   1.070       .  S
C1706      C1707   1.455       .  A
C1707      C1714   1.536       .  S
C1707      C1708   1.426       .  A
C1708      C1709   1.401       .  A
C1708      H1713   1.083       .  S
C1709      C1710   1.393       .  A
C1710      C1711   1.521       .  S
C1711      F1715   1.385       .  S
C1711      F1716   1.382       .  S
C1711      F1717   1.384       .  S
C1714      F1718   1.374       .  S
C1714      F1719   1.375       .  S
C1714      F1720   1.386       .  S
C1721      C1722   1.401       .  A
C1721      C1726   1.421       .  A
C1721      H1728   1.085       .  S
C1722      C1723   1.399       .  A
C1723      C1730   1.521       .  S
C1723      C1724   1.384       .  A
C1724      C1725   1.419       .  A
C1724      H1729   1.066       .  S
C1725      C1726   1.446       .  A
C1726      C1727   1.525       .  S
C1727      F1731   1.385       .  S
C1727      F1732   1.373       .  S
C1727      F1733   1.382       .  S
C1730      F1734   1.381       .  S
C1730      F1735   1.383       .  S
C1730      F1736   1.385       .  S
C1737      C1738   1.439       .  A
C1737      C1742   1.405       .  A
C1737      H1744   1.076       .  S
C1738      C1739   1.439       .  A
C1739      C1746   1.523       .  S
C1739      C1740   1.412       .  A
C1740      C1741   1.404       .  A
C1740      H1745   1.083       .  S
C1741      C1742   1.398       .  A
C1742      C1743   1.519       .  S
C1743      F1747   1.385       .  S
C1743      F1748   1.383       .  S
C1743      F1749   1.383       .  S
C1746      F1750   1.377       .  S
C1746      F1751   1.366       .  S
C1746      F1752   1.384       .  S
C1753      C1754   1.429       .  A
C1753      C1758   1.396       .  A
C1753      H1760   1.072       .  S
C1754      C1755   1.455       .  A
C1755      C1762   1.539       .  S
C1755      C1756   1.411       .  A
C1756      C1757   1.396       .  A
C1756      H1761   1.086       .  S
C1757      C1758   1.393       .  A
C1758      C1759   1.521       .  S
C1759      F1763   1.383       .  S
C1759      F1764   1.385       .  S
C1759      F1765   1.383       .  S
C1762      F1766   1.387       .  S
C1762      F1767   1.370       .  S
C1762      F1768   1.382       .  S
C1769      C1770   1.386       .  A
C1769      C1774   1.404       .  A
C1769      H1776   1.088       .  S
C1770      C1771   1.406       .  A
C1771      C1778   1.518       .  S
C1771      C1772   1.416       .  A
C1772      C1773   1.428       .  A
C1772      H1777   1.079       .  S
C1773      C1774   1.463       .  A
C1774      C1775   1.540       .  S
C1775      F1779   1.387       .  S
C1775      F1780   1.384       .  S
C1775      F1781   1.362       .  S
C1778      F1782   1.383       .  S
C1778      F1783   1.381       .  S
C1778      F1784   1.385       .  S
C1785      C1786   1.398       .  A
C1785      C1790   1.411       .  A
C1785      H1792   1.083       .  S
C1786      C1787   1.404       .  A
C1787      C1794   1.515       .  S
C1787      C1788   1.422       .  A
C1788      C1789   1.439       .  A
C1788      H1793   1.075       .  S
C1789      C1790   1.458       .  A
C1790      C1791   1.540       .  S
C1791      F1795   1.386       .  S
C1791      F1796   1.374       .  S
C1791      F1797   1.371       .  S
C1794      F1798   1.383       .  S
C1794      F1799   1.382       .  S
C1794      F1800   1.385       .  S
C1801      C1802   1.426       .  A
C1801      C1806   1.408       .  A
C1801      H1808   1.070       .  S
C1802      C1803   1.455       .  A
C1803      C1810   1.518       .  S
C1803      C1804   1.423       .  A
C1804      C1805   1.401       .  A
C1804      H1809   1.085       .  S
C1805      C1806   1.415       .  A
C1806      C1807   1.523       .  S
C1807      F1811   1.385       .  S
C1807      F1812   1.384       .  S
C1807      F1813   1.381       .  S
C1810      F1814   1.385       .  S
C1810      F1815   1.368   1_565  S
C1810      F1816   1.382       .  S
C1817      C1818   1.404       .  A
C1817      C1822   1.411       .  A
C1817      H1824   1.080       .  S
C1818      C1819   1.408       .  A
C1819      C1826   1.517       .  S
C1819      C1820   1.417       .  A
C1820      C1821   1.437       .  A
C1820      H1825   1.077       .  S
C1821      C1822   1.440       .  A
C1822      C1823   1.525       .  S
C1823      F1827   1.385       .  S
C1823      F1828   1.365   1_455  S
C1823      F1829   1.379   1_455  S
C1826      F1830   1.383       .  S
C1826      F1831   1.383       .  S
C1826      F1832   1.385       .  S
C1833      C1834   1.391   1_455  A
C1833      C1838   1.417       .  A
C1833      H1840   1.082       .  S
C1834      C1835   1.414       .  A
C1835      C1842   1.518       .  S
C1835      C1836   1.402       .  A
C1836      C1837   1.415       .  A
C1836      H1841   1.077       .  S
C1837      C1838   1.466   1_655  A
C1838      C1839   1.540       .  S
C1839      F1843   1.381       .  S
C1839      F1844   1.374       .  S
C1839      F1845   1.386       .  S
C1842      F1846   1.384       .  S
C1842      F1847   1.381       .  S
C1842      F1848   1.384       .  S
C1849      C1850   1.421   1_455  A
C1849      C1854   1.407       .  A
C1849      H1856   1.070       .  S
C1850      C1851   1.451       .  A
C1851      C1858   1.539       .  S
C1851      C1852   1.403       .  A
C1852      C1853   1.398   1_655  A
C1852      H1857   1.081       .  S
C1853      C1854   1.416       .  A
C1854      C1855   1.521       .  S
C1855      F1859   1.384       .  S
C1855      F1860   1.384       .  S
C1855      F1861   1.383       .  S
C1858      F1862   1.380       .  S
C1858      F1863   1.377       .  S
C1858      F1864   1.386       .  S
C1865      C1866   1.415       .  A
C1865      C1870   1.395       .  A
C1865      H1872   1.080       .  S
C1866      C1867   1.447       .  A
C1867      C1874   1.519       .  S
C1867      C1868   1.429       .  A
C1868      C1869   1.404       .  A
C1868      H1873   1.083       .  S
C1869      C1870   1.415       .  A
C1870      C1871   1.508       .  S
C1871      F1875   1.385       .  S
C1871      F1876   1.379       .  S
C1871      F1877   1.382       .  S
C1874      F1878   1.386       .  S
C1874      F1879   1.380       .  S
C1874      F1880   1.379       .  S
C1881      C1882   1.398       .  A
C1881      C1886   1.425       .  A
C1881      H1888   1.083       .  S
C1882      C1883   1.414       .  A
C1883      C1890   1.518       .  S
C1883      C1884   1.400       .  A
C1884      C1885   1.417       .  A
C1884      H1889   1.082       .  S
C1885      C1886   1.461       .  A
C1886      C1887   1.535       .  S
C1887      F1891   1.386       .  S
C1887      F1892   1.370       .  S
C1887      F1893   1.374       .  S
C1890      F1894   1.382       .  S
C1890      F1895   1.382       .  S
C1890      F1896   1.383       .  S
C1897      C1898   1.427       .  A
C1897      C1902   1.420       .  A
C1897      H1904   1.079       .  S
C1898      C1899   1.434       .  A
C1899      C1906   1.521       .  S
C1899      C1900   1.408       .  A
C1900      C1901   1.404       .  A
C1900      H1905   1.086       .  S
C1901      C1902   1.416       .  A
C1902      C1903   1.515       .  S
C1903      F1907   1.385       .  S
C1903      F1908   1.383       .  S
C1903      F1909   1.383       .  S
C1906      F1910   1.381       .  S
C1906      F1911   1.366       .  S
C1906      F1912   1.384       .  S
C1913      C1914   1.393       .  A
C1913      C1918   1.404       .  A
C1913      H1920   1.082       .  S
C1914      C1915   1.408       .  A
C1915      C1922   1.514       .  S
C1915      C1916   1.424       .  A
C1916      C1917   1.433       .  A
C1916      H1921   1.076       .  S
C1917      C1918   1.450       .  A
C1918      C1919   1.531       .  S
C1919      F1923   1.385       .  S
C1919      F1924   1.370       .  S
C1919      F1925   1.383       .  S
C1922      F1926   1.383       .  S
C1922      F1927   1.383       .  S
C1922      F1928   1.385       .  S
C1929      C1930   1.398       .  A
C1929      C1934   1.427       .  A
C1929      H1936   1.084       .  S
C1930      C1931   1.404       .  A
C1931      C1938   1.511       .  S
C1931      C1932   1.400       .  A
C1932      C1933   1.422       .  A
C1932      H1937   1.073       .  S
C1933      C1934   1.460       .  A
C1934      C1935   1.526       .  S
C1935      F1939   1.382       .  S
C1935      F1940   1.370       .  S
C1935      F1941   1.386       .  S
C1938      F1942   1.381       .  S
C1938      F1943   1.382       .  S
C1938      F1944   1.383       .  S
C1945      C1946   1.427       .  A
C1945      C1950   1.427       .  A
C1945      H1952   1.077       .  S
C1946      C1947   1.465       .  A
C1947      C1954   1.531       .  S
C1947      C1948   1.418       .  A
C1948      C1949   1.389       .  A
C1948      H1953   1.086       .  S
C1949      C1950   1.414       .  A
C1950      C1951   1.516       .  S
C1951      F1955   1.385       .  S
C1951      F1956   1.382       .  S
C1951      F1957   1.383       .  S
C1954      F1958   1.386       .  S
C1954      F1959   1.368       .  S
C1954      F1960   1.383       .  S
C1961      C1962   1.425       .  A
C1961      C1966   1.415       .  A
C1961      H1968   1.071       .  S
C1962      C1963   1.453       .  A
C1963      C1970   1.520       .  S
C1963      C1964   1.435       .  A
C1964      C1965   1.407       .  A
C1964      H1969   1.084       .  S
C1965      C1966   1.427       .  A
C1966      C1967   1.523       .  S
C1967      F1971   1.386       .  S
C1967      F1972   1.384       .  S
C1967      F1973   1.381       .  S
C1970      F1974   1.371       .  S
C1970      F1975   1.385       .  S
C1970      F1976   1.383       .  S
C1977      C1978   1.425       .  A
C1977      C1982   1.399       .  A
C1977      H1984   1.076       .  S
C1978      C1979   1.463       .  A
C1979      C1986   1.543       .  S
C1979      C1980   1.393       .  A
C1980      C1981   1.382       .  A
C1980      H1985   1.081       .  S
C1981      C1982   1.404       .  A
C1982      C1983   1.521       .  S
C1983      F1987   1.385       .  S
C1983      F1988   1.384       .  S
C1983      F1989   1.383       .  S
C1986      F1990   1.387       .  S
C1986      F1991   1.369       .  S
C1986      F1992   1.370       .  S
C1993      C1994   1.424       .  A
C1993      C1998   1.391       .  A
C1993      H2000   1.075       .  S
C1994      C1995   1.436   1_556  A
C1995      C2002   1.525       .  S
C1995      C1996   1.409       .  A
C1996      C1997   1.411   1_554  A
C1996      H2001   1.081       .  S
C1997      C1998   1.408       .  A
C1998      C1999   1.518       .  S
C1999      F2003   1.385       .  S
C1999      F2004   1.375       .  S
C1999      F2005   1.375       .  S
C2002      F2006   1.378       .  S
C2002      F2007   1.370       .  S
C2002      F2008   1.386       .  S
C2009      C2010   1.430       .  A
C2009      C2014   1.398       .  A
C2009      H2016   1.077       .  S
C2010      C2011   1.457       .  A
C2011      C2018   1.533       .  S
C2011      C2012   1.409       .  A
C2012      C2013   1.397       .  A
C2012      H2017   1.086       .  S
C2013      C2014   1.400       .  A
C2014      C2015   1.522       .  S
C2015      F2019   1.385       .  S
C2015      F2020   1.382       .  S
C2015      F2021   1.382       .  S
C2018      F2022   1.360       .  S
C2018      F2023   1.381   1_556  S
C2018      F2024   1.387       .  S
C2025      C2026   1.425       .  A
C2025      C2030   1.405       .  A
C2025      H2032   1.076       .  S
C2026      C2027   1.454       .  A
C2027      C2034   1.531       .  S
C2027      C2028   1.421       .  A
C2028      C2029   1.404       .  A
C2028      H2033   1.080       .  S
C2029      C2030   1.417       .  A
C2030      C2031   1.521       .  S
C2031      F2035   1.385       .  S
C2031      F2036   1.382       .  S
C2031      F2037   1.382       .  S
C2034      F2038   1.377       .  S
C2034      F2039   1.373       .  S
C2034      F2040   1.386       .  S
C2041      C2042   1.412       .  A
C2041      C2046   1.384       .  A
C2041      H2048   1.068       .  S
C2042      C2043   1.457       .  A
C2043      C2050   1.529       .  S
C2043      C2044   1.429       .  A
C2044      C2045   1.400       .  A
C2044      H2049   1.082       .  S
C2045      C2046   1.402       .  A
C2046      C2047   1.521       .  S
C2047      F2051   1.382       .  S
C2047      F2052   1.385       .  S
C2047      F2053   1.376       .  S
C2050      F2054   1.377   1_554  S
C2050      F2055   1.378   1_554  S
C2050      F2056   1.385       .  S
C2057      C2058   1.420       .  A
C2057      C2062   1.405       .  A
C2057      H2064   1.073       .  S
C2058      C2059   1.455       .  A
C2059      C2066   1.526       .  S
C2059      C2060   1.414       .  A
C2060      C2061   1.393       .  A
C2060      H2065   1.085       .  S
C2061      C2062   1.409       .  A
C2062      C2063   1.514       .  S
C2063      F2067   1.384       .  S
C2063      F2068   1.381       .  S
C2063      F2069   1.383       .  S
C2066      F2070   1.386       .  S
C2066      F2071   1.371       .  S
C2066      F2072   1.380       .  S
C2073      C2074   1.388       .  A
C2073      C2078   1.406       .  A
C2073      H2080   1.086       .  S
C2074      C2075   1.414   1_554  A
C2075      C2082   1.524       .  S
C2075      C2076   1.406       .  A
C2076      C2077   1.413   1_556  A
C2076      H2081   1.077       .  S
C2077      C2078   1.457       .  A
C2078      C2079   1.538       .  S
C2079      F2083   1.383       .  S
C2079      F2084   1.381       .  S
C2079      F2085   1.373       .  S
C2082      F2086   1.384   1_556  S
C2082      F2087   1.376       .  S
C2082      F2088   1.384       .  S
C2089      C2090   1.394       .  A
C2089      C2094   1.415       .  A
C2089      H2096   1.086       .  S
C2090      C2091   1.415       .  A
C2091      C2098   1.512       .  S
C2091      C2092   1.412       .  A
C2092      C2093   1.417       .  A
C2092      H2097   1.075       .  S
C2093      C2094   1.455       .  A
C2094      C2095   1.530       .  S
C2095      F2099   1.381       .  S
C2095      F2100   1.367       .  S
C2095      F2101   1.386       .  S
C2098      F2102   1.384       .  S
C2098      F2103   1.382       .  S
C2098      F2104   1.382       .  S
C2105      C2106   1.437       .  A
C2105      C2110   1.422       .  A
C2105      H2112   1.072       .  S
C2106      C2107   1.444       .  A
C2107      C2114   1.537       .  S
C2107      C2108   1.407       .  A
C2108      C2109   1.403       .  A
C2108      H2113   1.081       .  S
C2109      C2110   1.410       .  A
C2110      C2111   1.517       .  S
C2111      F2115   1.385       .  S
C2111      F2116   1.382       .  S
C2111      F2117   1.383       .  S
C2114      F2118   1.375       .  S
C2114      F2119   1.380       .  S
C2114      F2120   1.385       .  S
C2121      C2122   1.428       .  A
C2121      C2126   1.421       .  A
C2121      H2128   1.071       .  S
C2122      C2123   1.461       .  A
C2123      C2130   1.534   1_565  S
C2123      C2124   1.420       .  A
C2124      C2125   1.392       .  A
C2124      H2129   1.083       .  S
C2125      C2126   1.412       .  A
C2126      C2127   1.517       .  S
C2127      F2131   1.385       .  S
C2127      F2132   1.383       .  S
C2127      F2133   1.382   1_565  S
C2130      F2134   1.374   1_545  S
C2130      F2135   1.380       .  S
C2130      F2136   1.386   1_545  S
C2137      C2138   1.421   1_565  A
C2137      C2142   1.422       .  A
C2137      H2144   1.074       .  S
C2138      C2139   1.468       .  A
C2139      C2146   1.535       .  S
C2139      C2140   1.425       .  A
C2140      C2141   1.394       .  A
C2140      H2145   1.086       .  S
C2141      C2142   1.418   1_545  A
C2142      C2143   1.513       .  S
C2143      F2147   1.383       .  S
C2143      F2148   1.383       .  S
C2143      F2149   1.382       .  S
C2146      F2150   1.365       .  S
C2146      F2151   1.387       .  S
C2146      F2152   1.383       .  S
C2153      C2154   1.389       .  A
C2153      C2158   1.410       .  A
C2153      H2160   1.083       .  S
C2154      C2155   1.412       .  A
C2155      C2162   1.518       .  S
C2155      C2156   1.414       .  A
C2156      C2157   1.426       .  A
C2156      H2161   1.073       .  S
C2157      C2158   1.457       .  A
C2158      C2159   1.539       .  S
C2159      F2163   1.380       .  S
C2159      F2164   1.386       .  S
C2159      F2165   1.374       .  S
C2162      F2166   1.382       .  S
C2162      F2167   1.383       .  S
C2162      F2168   1.385       .  S
C2169      C2170   1.428       .  A
C2169      C2174   1.416       .  A
C2169      H2176   1.069       .  S
C2170      C2171   1.456       .  A
C2171      C2178   1.533       .  S
C2171      C2172   1.407       .  A
C2172      C2173   1.390       .  A
C2172      H2177   1.083       .  S
C2173      C2174   1.408       .  A
C2174      C2175   1.517   1_554  S
C2175      F2179   1.385       .  S
C2175      F2180   1.383       .  S
C2175      F2181   1.382       .  S
C2178      F2182   1.381       .  S
C2178      F2183   1.375       .  S
C2178      F2184   1.386       .  S
C2185      C2186   1.388       .  A
C2185      C2190   1.406       .  A
C2185      H2192   1.088       .  S
C2186      C2187   1.413       .  A
C2187      C2194   1.510       .  S
C2187      C2188   1.415       .  A
C2188      C2189   1.418       .  A
C2188      H2193   1.074       .  S
C2189      C2190   1.463       .  A
C2190      C2191   1.538       .  S
C2191      F2195   1.387       .  S
C2191      F2196   1.362       .  S
C2191      F2197   1.382       .  S
C2194      F2198   1.383       .  S
C2194      F2199   1.381   1_554  S
C2194      F2200   1.383   1_554  S
C2201      C2202   1.427       .  A
C2201      C2206   1.377       .  A
C2201      H2208   1.079       .  S
C2202      C2203   1.458   1_556  A
C2203      C2210   1.538       .  S
C2203      C2204   1.407       .  A
C2204      C2205   1.389       .  A
C2204      H2209   1.086       .  S
C2205      C2206   1.393   1_554  A
C2206      C2207   1.516       .  S
C2207      F2211   1.382       .  S
C2207      F2212   1.382   1_556  S
C2207      F2213   1.386       .  S
C2210      F2214   1.364   1_554  S
C2210      F2215   1.382       .  S
C2210      F2216   1.386   1_554  S
C2217      C2218   1.419   1_556  A
C2217      C2222   1.383       .  A
C2217      H2224   1.069       .  S
C2218      C2219   1.441       .  A
C2219      C2226   1.530       .  S
C2219      C2220   1.404       .  A
C2220      C2221   1.407   1_554  A
C2220      H2225   1.083       .  S
C2221      C2222   1.407       .  A
C2222      C2223   1.524       .  S
C2223      F2227   1.386       .  S
C2223      F2228   1.383       .  S
C2223      F2229   1.384       .  S
C2226      F2230   1.373       .  S
C2226      F2231   1.386       .  S
C2226      F2232   1.382       .  S
C2233      C2234   1.398       .  A
C2233      C2238   1.412       .  A
C2233      H2240   1.083       .  S
C2234      C2235   1.400       .  A
C2235      C2242   1.523       .  S
C2235      C2236   1.387       .  A
C2236      C2237   1.428       .  A
C2236      H2241   1.071       .  S
C2237      C2238   1.453       .  A
C2238      C2239   1.532       .  S
C2239      F2243   1.379       .  S
C2239      F2244   1.374   1_554  S
C2239      F2245   1.386       .  S
C2242      F2246   1.382       .  S
C2242      F2247   1.384       .  S
C2242      F2248   1.385       .  S
C2249      C2250   1.390       .  A
C2249      C2254   1.423       .  A
C2249      H2256   1.084       .  S
C2250      C2251   1.409       .  A
C2251      C2258   1.517       .  S
C2251      C2252   1.421       .  A
C2252      C2253   1.432       .  A
C2252      H2257   1.078       .  S
C2253      C2254   1.478       .  A
C2254      C2255   1.548       .  S
C2255      F2259   1.388       .  S
C2255      F2260   1.370       .  S
C2255      F2261   1.378       .  S
C2258      F2262   1.382       .  S
C2258      F2263   1.383       .  S
C2258      F2264   1.385       .  S
C2265      C2266   1.386       .  A
C2265      C2270   1.421       .  A
C2265      H2272   1.084       .  S
C2266      C2267   1.421       .  A
C2267      C2274   1.523       .  S
C2267      C2268   1.412       .  A
C2268      C2269   1.422       .  A
C2268      H2273   1.084       .  S
C2269      C2270   1.480       .  A
C2270      C2271   1.544       .  S
C2271      F2275   1.363       .  S
C2271      F2276   1.388       .  S
C2271      F2277   1.379       .  S
C2274      F2278   1.380       .  S
C2274      F2279   1.383       .  S
C2274      F2280   1.383       .  S
C2281      C2282   1.407       .  A
C2281      C2286   1.440       .  A
C2281      H2288   1.083       .  S
C2282      C2283   1.420       .  A
C2283      C2290   1.515       .  S
C2283      C2284   1.406       .  A
C2284      C2285   1.417       .  A
C2284      H2289   1.071       .  S
C2285      C2286   1.462       .  A
C2286      C2287   1.527       .  S
C2287      F2291   1.385       .  S
C2287      F2292   1.377       .  S
C2287      F2293   1.380       .  S
C2290      F2294   1.378       .  S
C2290      F2295   1.381       .  S
C2290      F2296   1.384       .  S
C2297      C2298   1.391       .  A
C2297      C2302   1.423       .  A
C2297      H2304   1.083       .  S
C2298      C2299   1.415       .  A
C2299      C2306   1.519       .  S
C2299      C2300   1.409       .  A
C2300      C2301   1.415       .  A
C2300      H2305   1.068       .  S
C2301      C2302   1.471       .  A
C2302      C2303   1.538       .  S
C2303      F2307   1.387       .  S
C2303      F2308   1.371       .  S
C2303      F2309   1.374       .  S
C2306      F2310   1.383       .  S
C2306      F2311   1.381       .  S
C2306      F2312   1.384       .  S
C2313      C2314   1.427       .  A
C2313      C2318   1.393       .  A
C2313      H2320   1.075       .  S
C2314      C2315   1.458       .  A
C2315      C2322   1.532       .  S
C2315      C2316   1.417       .  A
C2316      C2317   1.394       .  A
C2316      H2321   1.082       .  S
C2317      C2318   1.402       .  A
C2318      C2319   1.522       .  S
C2319      F2323   1.386       .  S
C2319      F2324   1.380       .  S
C2319      F2325   1.384       .  S
C2322      F2326   1.378       .  S
C2322      F2327   1.376       .  S
C2322      F2328   1.385       .  S
C2329      C2330   1.418       .  A
C2329      C2334   1.400       .  A
C2329      H2336   1.079       .  S
C2330      C2331   1.463       .  A
C2331      C2338   1.543       .  S
C2331      C2332   1.411       .  A
C2332      C2333   1.398       .  A
C2332      H2337   1.078       .  S
C2333      C2334   1.416       .  A
C2334      C2335   1.524       .  S
C2335      F2339   1.385       .  S
C2335      F2340   1.382       .  S
C2335      F2341   1.384       .  S
C2338      F2342   1.378       .  S
C2338      F2343   1.374       .  S
C2338      F2344   1.385       .  S
C2345      C2346   1.426       .  A
C2345      C2350   1.380       .  A
C2345      H2352   1.078       .  S
C2346      C2347   1.453       .  A
C2347      C2354   1.531       .  S
C2347      C2348   1.412       .  A
C2348      C2349   1.395       .  A
C2348      H2353   1.085       .  S
C2349      C2350   1.394       .  A
C2350      C2351   1.520       .  S
C2351      F2355   1.380       .  S
C2351      F2356   1.379       .  S
C2351      F2357   1.384       .  S
C2354      F2358   1.374       .  S
C2354      F2359   1.387       .  S
C2354      F2360   1.380       .  S
C2361      C2362   1.429       .  A
C2361      C2366   1.418       .  A
C2361      H2368   1.065       .  S
C2362      C2363   1.444       .  A
C2363      C2370   1.518       .  S
C2363      C2364   1.410       .  A
C2364      C2365   1.396       .  A
C2364      H2369   1.085       .  S
C2365      C2366   1.407       .  A
C2366      C2367   1.520       .  S
C2367      F2371   1.384       .  S
C2367      F2372   1.383       .  S
C2367      F2373   1.383       .  S
C2370      F2374   1.382       .  S
C2370      F2375   1.374       .  S
C2370      F2376   1.387       .  S
C2377      C2378   1.429       .  A
C2377      C2382   1.415       .  A
C2377      H2384   1.067       .  S
C2378      C2379   1.444       .  A
C2379      C2386   1.523       .  S
C2379      C2380   1.412       .  A
C2380      C2381   1.402       .  A
C2380      H2385   1.086       .  S
C2381      C2382   1.406       .  A
C2382      C2383   1.517       .  S
C2383      F2387   1.384       .  S
C2383      F2388   1.382       .  S
C2383      F2389   1.384       .  S
C2386      F2390   1.383       .  S
C2386      F2391   1.374       .  S
C2386      F2392   1.387       .  S
C2393      C2394   1.403       .  A
C2393      C2398   1.403       .  A
C2393      H2400   1.085       .  S
C2394      C2395   1.418       .  A
C2395      C2402   1.520       .  S
C2395      C2396   1.420       .  A
C2396      C2397   1.423       .  A
C2396      H2401   1.069       .  S
C2397      C2398   1.439       .  A
C2398      C2399   1.523       .  S
C2399      F2403   1.388       .  S
C2399      F2404   1.366       .  S
C2399      F2405   1.382       .  S
C2402      F2406   1.382       .  S
C2402      F2407   1.383       .  S
C2402      F2408   1.385       .  S
C2409      C2410   1.392       .  A
C2409      C2414   1.413       .  A
C2409      H2416   1.085       .  S
C2410      C2411   1.406       .  A
C2411      C2418   1.518       .  S
C2411      C2412   1.413       .  A
C2412      C2413   1.426       .  A
C2412      H2417   1.068       .  S
C2413      C2414   1.457       .  A
C2414      C2415   1.526       .  S
C2415      F2419   1.387       .  S
C2415      F2420   1.379       .  S
C2415      F2421   1.369       .  S
C2418      F2422   1.383       .  S
C2418      F2423   1.381       .  S
C2418      F2424   1.383       .  S
C2425      C2426   1.415       .  A
C2425      C2430   1.413       .  A
C2425      H2432   1.068       .  S
C2426      C2427   1.468       .  A
C2427      C2434   1.537       .  S
C2427      C2428   1.415       .  A
C2428      C2429   1.387       .  A
C2428      H2433   1.086       .  S
C2429      C2430   1.417       .  A
C2430      C2431   1.518       .  S
C2431      F2435   1.384       .  S
C2431      F2436   1.382       .  S
C2431      F2437   1.382       .  S
C2434      F2438   1.381       .  S
C2434      F2439   1.362       .  S
C2434      F2440   1.388       .  S
C2441      C2442   1.398       .  A
C2441      C2446   1.409       .  A
C2441      H2448   1.086       .  S
C2442      C2443   1.413       .  A
C2443      C2450   1.517       .  S
C2443      C2444   1.414       .  A
C2444      C2445   1.428       .  A
C2444      H2449   1.077       .  S
C2445      C2446   1.435       .  A
C2446      C2447   1.543       .  S
C2447      F2451   1.386       .  S
C2447      F2452   1.371       .  S
C2447      F2453   1.384       .  S
C2450      F2454   1.380       .  S
C2450      F2455   1.384       .  S
C2450      F2456   1.383       .  S
C2457      C2458   1.424       .  A
C2457      C2462   1.399       .  A
C2457      H2464   1.077       .  S
C2458      C2459   1.440       .  A
C2459      C2466   1.518       .  S
C2459      C2460   1.419       .  A
C2460      C2461   1.398       .  A
C2460      H2465   1.082       .  S
C2461      C2462   1.404       .  A
C2462      C2463   1.518       .  S
C2463      F2467   1.385       .  S
C2463      F2468   1.380       .  S
C2463      F2469   1.383       .  S
C2466      F2470   1.384       .  S
C2466      F2471   1.369       .  S
C2466      F2472   1.380       .  S
C2473      C2474   1.427       .  A
C2473      C2478   1.405       .  A
C2473      H2480   1.083       .  S
C2474      C2475   1.466   1_545  A
C2475      C2482   1.528       .  S
C2475      C2476   1.438   1_565  A
C2476      C2477   1.403       .  A
C2476      H2481   1.081   1_545  S
C2477      C2478   1.418       .  A
C2478      C2479   1.520   1_545  S
C2479      F2483   1.384       .  S
C2479      F2484   1.379       .  S
C2479      F2485   1.380   1_565  S
C2482      F2486   1.378       .  S
C2482      F2487   1.374   1_565  S
C2482      F2488   1.385       .  S
C2489      C2490   1.418   1_565  A
C2489      C2494   1.420       .  A
C2489      H2496   1.079       .  S
C2490      C2491   1.467       .  A
C2491      C2498   1.535       .  S
C2491      C2492   1.418       .  A
C2492      C2493   1.394       .  A
C2492      H2497   1.085       .  S
C2493      C2494   1.427   1_545  A
C2494      C2495   1.520       .  S
C2495      F2499   1.384       .  S
C2495      F2500   1.378       .  S
C2495      F2501   1.382       .  S
C2498      F2502   1.388       .  S
C2498      F2503   1.366       .  S
C2498      F2504   1.382       .  S
C2505      C2506   1.427       .  A
C2505      C2510   1.427       .  A
C2505      H2512   1.077       .  S
C2506      C2507   1.449       .  A
C2507      C2514   1.533       .  S
C2507      C2508   1.408       .  A
C2508      C2509   1.400       .  A
C2508      H2513   1.077       .  S
C2509      C2510   1.413       .  A
C2510      C2511   1.515       .  S
C2511      F2515   1.384       .  S
C2511      F2516   1.382       .  S
C2511      F2517   1.382       .  S
C2514      F2518   1.380       .  S
C2514      F2519   1.369       .  S
C2514      F2520   1.386       .  S
C2521      C2522   1.401       .  A
C2521      C2526   1.415       .  A
C2521      H2528   1.080       .  S
C2522      C2523   1.403       .  A
C2523      C2530   1.518       .  S
C2523      C2524   1.421       .  A
C2524      C2525   1.439       .  A
C2524      H2529   1.062       .  S
C2525      C2526   1.452       .  A
C2526      C2527   1.528       .  S
C2527      F2531   1.386       .  S
C2527      F2532   1.375       .  S
C2527      F2533   1.379       .  S
C2530      F2534   1.383       .  S
C2530      F2535   1.383       .  S
C2530      F2536   1.385       .  S
C2537      C2538   1.406       .  A
C2537      C2542   1.418       .  A
C2537      H2544   1.082       .  S
C2538      C2539   1.422       .  A
C2539      C2546   1.527       .  S
C2539      C2540   1.402       .  A
C2540      C2541   1.422       .  A
C2540      H2545   1.072       .  S
C2541      C2542   1.444       .  A
C2542      C2543   1.525       .  S
C2543      F2547   1.385       .  S
C2543      F2548   1.369       .  S
C2543      F2549   1.381       .  S
C2546      F2550   1.382       .  S
C2546      F2551   1.384       .  S
C2546      F2552   1.386       .  S
C2553      C2554   1.382       .  A
C2553      C2558   1.401       .  A
C2553      H2560   1.086       .  S
C2554      C2555   1.410       .  A
C2555      C2562   1.518       .  S
C2555      C2556   1.413       .  A
C2556      C2557   1.423       .  A
C2556      H2561   1.075       .  S
C2557      C2558   1.458       .  A
C2558      C2559   1.523       .  S
C2559      F2563   1.386       .  S
C2559      F2564   1.383       .  S
C2559      F2565   1.363       .  S
C2562      F2566   1.383       .  S
C2562      F2567   1.382       .  S
C2562      F2568   1.384       .  S
C2569      C2570   1.402       .  A
C2569      C2574   1.438       .  A
C2569      H2576   1.082       .  S
C2570      C2571   1.403       .  A
C2571      C2578   1.521       .  S
C2571      C2572   1.410       .  A
C2572      C2573   1.435       .  A
C2572      H2577   1.072       .  S
C2573      C2574   1.465       .  A
C2574      C2575   1.535       .  S
C2575      F2579   1.384       .  S
C2575      F2580   1.371   1_565  S
C2575      F2581   1.375       .  S
C2578      F2582   1.384       .  S
C2578      F2583   1.380       .  S
C2578      F2584   1.384       .  S
C2585      C2586   1.386       .  A
C2585      C2590   1.397       .  A
C2585      H2592   1.083       .  S
C2586      C2587   1.404       .  A
C2587      C2594   1.520       .  S
C2587      C2588   1.396       .  A
C2588      C2589   1.421       .  A
C2588      H2593   1.075       .  S
C2589      C2590   1.456       .  A
C2590      C2591   1.537       .  S
C2591      F2595   1.385       .  S
C2591      F2596   1.366       .  S
C2591      F2597   1.378       .  S
C2594      F2598   1.384       .  S
C2594      F2599   1.383       .  S
C2594      F2600   1.385       .  S
C2601      C2602   1.396       .  A
C2601      C2606   1.421       .  A
C2601      H2608   1.083       .  S
C2602      C2603   1.406       .  A
C2603      C2610   1.521       .  S
C2603      C2604   1.417       .  A
C2604      C2605   1.430       .  A
C2604      H2609   1.070       .  S
C2605      C2606   1.462       .  A
C2606      C2607   1.535       .  S
C2607      F2611   1.385       .  S
C2607      F2612   1.380       .  S
C2607      F2613   1.375       .  S
C2610      F2614   1.383       .  S
C2610      F2615   1.384       .  S
C2610      F2616   1.382       .  S
