geometry optimzed in LAMMPS
_audit_creation_date              2020-11-30 
_audit_creation_method            'lammps2cif' 
_symmetry_space_group_name_H-M    'P1' 
_symmetry_Int_Tables_number       1 
_symmetry_cell_setting            triclinic 
loop_ 
_symmetry_equiv_pos_as_xyz 
  x,y,z 
_cell_length_a                    39.85810979 
_cell_length_b                    39.87220864321856 
_cell_length_c                    79.57812129949937 
_cell_angle_alpha                 89.9664463285985 
_cell_angle_beta                  90.04360795294937 
_cell_angle_gamma                 89.9760506985896 
loop_ 
_atom_site_label 
_atom_site_type_symbol 
_atom_site_fract_x 
_atom_site_fract_y 
_atom_site_fract_z 
_atom_site_charge 
O1          O  0.71047351  0.78587708  0.72910063    -0.72500
O2          O  0.71360767  0.71440689  0.76468754    -0.73500
O3          O  0.71280446  0.78561258  0.76473940    -0.62100
O4          O  0.71158831  0.71473462  0.72886568    -0.70500
O5          O  0.76702536  0.71629231  0.72766788    -0.70100
O6          O  0.76826958  0.78527623  0.76421691    -0.61400
O7          O  0.76919843  0.71388309  0.76325153    -0.73900
O8          O  0.76606576  0.78741926  0.72874383    -0.72600
Cu9        Cu  0.71017718  0.75009622  0.74688934     1.04600
Cu10       Cu  0.76955127  0.75072259  0.74595997     1.04300
C11         C  0.73778820  0.79810344  0.72336487     0.93700
C12         C  0.74186785  0.70259285  0.76944563     0.92800
C13         C  0.74085082  0.79682410  0.77015905     0.84900
C14         C  0.73911170  0.70454209  0.72239685     0.91200
O15         O  0.26889427  0.78024456  0.77186443    -0.72500
O16         O  0.26396652  0.71105280  0.73535619    -0.73500
O17         O  0.26642257  0.78218619  0.73634729    -0.62100
O18         O  0.26726342  0.70971216  0.77077117    -0.70500
O19         O  0.21180032  0.71299498  0.77292576    -0.70100
O20         O  0.21068802  0.78205786  0.73616728    -0.61400
O21         O  0.20861242  0.71110149  0.73723685    -0.73900
O22         O  0.21326869  0.78373749  0.77172063    -0.72600
Cu23       Cu  0.26857167  0.74574087  0.75350832     1.04600
Cu24       Cu  0.20911486  0.74749534  0.75453193     1.04300
C25         C  0.24168942  0.79291254  0.77750363     0.93700
C26         C  0.23546146  0.69967582  0.73064497     0.92800
C27         C  0.23861245  0.79354634  0.73079491     0.84900
C28         C  0.23984174  0.70048574  0.77758668     0.91200
O29         O  0.95978272  0.53222173  0.51639767    -0.72500
O30         O  0.03217845  0.53754915  0.48152445    -0.73500
O31         O  0.96101206  0.53567580  0.48060281    -0.62100
O32         O  0.03096496  0.53348267  0.51715514    -0.70500
O33         O  0.03225006  0.47818142  0.51524361    -0.70100
O34         O  0.96178189  0.48014460  0.47974496    -0.61400
O35         O  0.03237518  0.48203568  0.47972234    -0.73900
O36         O  0.96147195  0.47675826  0.51529780    -0.72600
Cu37       Cu  0.99590176  0.53671693  0.49897046     1.04600
Cu38       Cu  0.99700597  0.47741373  0.49745686     1.04300
C39         C  0.94947751  0.50368347  0.52158467     0.93700
C40         C  0.04359948  0.51057015  0.47504898     0.92800
C41         C  0.95052788  0.50808665  0.47430656     0.84900
C42         C  0.04272878  0.50521703  0.52200409     0.91200
C43         C  0.71576342  0.47671220  0.62023452     0.80600
N44         N  0.74046513  0.47653996  0.60851272    -0.77700
C45         C  0.76496486  0.50016411  0.60859027     0.83100
N46         N  0.76473633  0.52405779  0.62077251    -0.77600
C47         C  0.74027981  0.52463406  0.63266937     0.83200
N48         N  0.71566692  0.50103457  0.63219169    -0.79300
C49         C  0.25772073  0.47035292  0.62931810     0.80600
N50         N  0.23485059  0.47237868  0.61670639    -0.77700
C51         C  0.21078169  0.49648541  0.61691092     0.83100
N52         N  0.21026254  0.51902768  0.62967554    -0.77600
C53         C  0.23298542  0.51733317  0.64237863     0.83200
N54         N  0.25664157  0.49278919  0.64213726    -0.79300
O55         O  0.03785492  0.97857662  0.51890600    -0.72500
O56         O  0.96532146  0.97944425  0.48406606    -0.73500
O57         O  0.03663541  0.98084659  0.48321618    -0.62100
O58         O  0.96674214  0.97744425  0.51953075    -0.70500
O59         O  0.96379036  0.03304886  0.51897611    -0.70100
O60         O  0.03791415  0.03635862  0.48497950    -0.61400
O61         O  0.96682696  0.03515067  0.48354579    -0.73900
O62         O  0.03493602  0.03403292  0.52059495    -0.72600
Cu63       Cu  0.00175579  0.97711865  0.50138600     1.04600
Cu64       Cu  0.00090259  0.03660280  0.50205936     1.04300
C65         C  0.04720479  0.00614466  0.52559667     0.93700
C66         C  0.95471734  0.00741014  0.47831776     0.92800
C67         C  0.04852360  0.00907871  0.47846094     0.84900
C68         C  0.95365051  0.00484346  0.52465177     0.91200
C69         C  0.21632139  0.00270470  0.61974627     0.80600
N70         N  0.23879125  0.02806939  0.62118944    -0.77700
C71         C  0.26123228  0.02876992  0.63399603     0.83100
N72         N  0.26130406  0.00349918  0.64545718    -0.77600
C73         C  0.23841708  0.97833615  0.64439841     0.83200
N74         N  0.21603042  0.97802823  0.63151463    -0.79300
C75         C  0.71820327  0.02708361  0.62182854     0.80600
N76         N  0.74156664  0.02632188  0.60942678    -0.77700
C77         C  0.76481625  0.00149057  0.60881603     0.83100
N78         N  0.76487109  0.97732105  0.62083602    -0.77600
C79         C  0.74195587  0.97771351  0.63346216     0.83200
N80         N  0.71869321  0.00267185  0.63376558    -0.79300
O81         O  0.46752928  0.46159365  0.98450891    -0.72500
O82         O  0.54306183  0.46474376  0.01773007    -0.73500
O83         O  0.47188093  0.46535176  0.02006775    -0.62100
O84         O  0.53876745  0.46122391  0.98213357    -0.70500
O85         O  0.53988949  0.51666571  0.98123763    -0.70100
O86         O  0.47126359  0.52079028  0.01813917    -0.61400
O87         O  0.54253020  0.52024572  0.01674297    -0.73900
O88         O  0.46929027  0.51716698  0.98255474    -0.72600
Cu89       Cu  0.50528925  0.46126122  0.00118303     1.04600
Cu90       Cu  0.50571826  0.52061289  0.99965370     1.04300
C91         C  0.45703930  0.48899723  0.97807545     0.93700
C92         C  0.55477003  0.49299731  0.02253416     0.92800
C93         C  0.46080753  0.49377293  0.02502961     0.84900
C94         C  0.54999093  0.48835369  0.97564975     0.91200
C95         C  0.76785951  0.46882135  0.86721762     0.80600
N96         N  0.74478359  0.46776529  0.87973881    -0.77700
C97         C  0.71987474  0.49093871  0.88073315     0.83100
N98         N  0.71797049  0.51534085  0.86876864    -0.77600
C99         C  0.74103837  0.51678943  0.85617029     0.83200
N100        N  0.76606249  0.49369645  0.85560966    -0.79300
C101        C  0.22850510  0.47139241  0.87761494     0.80600
N102        N  0.22831630  0.49646352  0.86607287    -0.77700
C103        C  0.25217856  0.52074734  0.86629610     0.83100
N104        N  0.27605754  0.52010543  0.87844162    -0.77600
C105        C  0.27644527  0.49532703  0.89012421     0.83200
N106        N  0.25272135  0.47092357  0.88961075    -0.79300
O107        O  0.72726373  0.28275081  0.22784180    -0.72500
O108        O  0.72078163  0.21407682  0.26453403    -0.73500
O109        O  0.72346554  0.28532091  0.26335944    -0.62100
O110        O  0.72478882  0.21211466  0.22863906    -0.70500
O111        O  0.78023809  0.21176187  0.22962825    -0.70100
O112        O  0.77884519  0.28155161  0.26585692    -0.61400
O113        O  0.77630893  0.21053995  0.26527508    -0.73900
O114        O  0.78274199  0.28266514  0.23019729    -0.72600
Cu115      Cu  0.72211237  0.24857473  0.24607412     1.04600
Cu116      Cu  0.78144916  0.24651808  0.24781297     1.04300
C117        C  0.75597858  0.29349465  0.22319972     0.93700
C118        C  0.74756412  0.20144617  0.27071702     0.92800
C119        C  0.75097731  0.29492936  0.27005851     0.84900
C120        C  0.75285386  0.20093727  0.22325834     0.91200
O121        O  0.46719849  0.96581516  0.98234749    -0.72500
O122        O  0.54124347  0.96714813  0.01615839    -0.73500
O123        O  0.47020634  0.96455455  0.01808208    -0.62100
O124        O  0.53836685  0.96929718  0.98066768    -0.70500
O125        O  0.53655639  0.02465643  0.98193882    -0.70100
O126        O  0.46714861  0.02003894  0.01798289    -0.61400
O127        O  0.53767829  0.02268599  0.01750307    -0.73900
O128        O  0.46562100  0.02138505  0.98240259    -0.72600
Cu129      Cu  0.50429843  0.96472956  0.99926908     1.04600
Cu130      Cu  0.50165945  0.02408908  0.99995563     1.04300
C131        C  0.45470852  0.99327458  0.97695957     0.93700
C132        C  0.55080792  0.99507597  0.02232159     0.92800
C133        C  0.45787993  0.99180514  0.02393271     0.84900
C134        C  0.54862018  0.99794008  0.97551773     0.91200
C135        C  0.24151668  0.96770971  0.86857566     0.80600
N136        N  0.21694234  0.99120235  0.86913414    -0.77700
C137        C  0.21790255  0.01645063  0.88060516     0.83100
N138        N  0.24399089  0.01772740  0.89163786    -0.77600
C139        C  0.26887207  0.99437587  0.89110952     0.83200
N140        N  0.26751786  0.96956166  0.87949498    -0.79300
C141        C  0.72293555  0.00379126  0.88330893     0.80600
N142        N  0.72202637  0.97940728  0.87146989    -0.77700
C143        C  0.74506819  0.97811967  0.85898398     0.83100
N144        N  0.76939712  0.00200734  0.85833174    -0.77600
C145        C  0.77071311  0.02675223  0.87008490     0.83200
N146        N  0.74755936  0.02729581  0.88264421    -0.79300
O147        O  0.23201256  0.21573127  0.27026367    -0.72500
O148        O  0.23358100  0.28710531  0.23489112    -0.73500
O149        O  0.23188998  0.21543709  0.23475928    -0.62100
O150        O  0.23395062  0.28686337  0.27051905    -0.70500
O151        O  0.28946477  0.28554646  0.27047347    -0.70100
O152        O  0.28753155  0.21490810  0.23432792    -0.61400
O153        O  0.28912793  0.28643878  0.23488380    -0.73900
O154        O  0.28763330  0.21440697  0.27016373    -0.72600
Cu155      Cu  0.23095033  0.25134098  0.25257379     1.04600
Cu156      Cu  0.29038044  0.25023568  0.25242948     1.04300
C157        C  0.25958614  0.20395505  0.27592374     0.93700
C158        C  0.26146403  0.29846082  0.22940441     0.92800
C159        C  0.25942368  0.20360190  0.22904144     0.84900
C160        C  0.26202372  0.29756143  0.27618632     0.91200
C161        C  0.29067978  0.99137118  0.11967004     0.80600
N162        N  0.26566459  0.96818659  0.11919999    -0.77700
C163        C  0.24038027  0.96832122  0.13063258     0.83100
N164        N  0.23997666  0.99262955  0.14263544    -0.77600
C165        C  0.26492562  0.01582657  0.14345496     0.83200
N166        N  0.29009897  0.01507596  0.13194026    -0.79300
C167        C  0.78376719  0.97663418  0.11956562     0.80600
N168        N  0.78525775  0.00144363  0.13124371    -0.77700
C169        C  0.76207129  0.02640804  0.13146494     0.83100
N170        N  0.73738566  0.02674023  0.11967895    -0.77600
C171        C  0.73565642  0.00204155  0.10796982     0.83200
N172        N  0.75875377  0.97709319  0.10802502    -0.79300
C173        C  0.78556582  0.52124203  0.12235684     0.80600
N174        N  0.78621791  0.49617333  0.13391095    -0.77700
C175        C  0.76403795  0.47044394  0.13300195     0.83100
N176        N  0.74091268  0.46977006  0.12050444    -0.77600
C177        C  0.74025509  0.49434488  0.10868977     0.83200
N178        N  0.76243287  0.52005067  0.10982641    -0.79300
C179        C  0.23419133  0.52473306  0.12749203     0.80600
N180        N  0.25713688  0.52477079  0.11487619    -0.77700
C181        C  0.28279913  0.50242950  0.11504759     0.83100
N182        N  0.28549716  0.48011868  0.12783816    -0.77600
C183        C  0.26295361  0.47992975  0.14062404     0.83200
N184        N  0.23739106  0.50255006  0.14035931    -0.79300
C185        C  0.28387586  0.98419909  0.38107168     0.80600
N186        N  0.26049215  0.98561397  0.39351470    -0.77700
C187        C  0.23602541  0.00940015  0.39327851     0.83100
N188        N  0.23493683  0.03163937  0.38037430    -0.77600
C189        C  0.25768414  0.03019000  0.36775906     0.83200
N190        N  0.28205299  0.00642702  0.36814962    -0.79300
C191        C  0.72833019  0.98097958  0.37672606     0.80600
N192        N  0.75301158  0.98124993  0.38843344    -0.77700
C193        C  0.77663433  0.00566134  0.38845643     0.83100
N194        N  0.77525735  0.03028235  0.37664740    -0.77600
C195        C  0.75082467  0.03040665  0.36469143     0.83200
N196        N  0.72752993  0.00540738  0.36481192    -0.79300
C197        C  0.73182506  0.52876816  0.36845070     0.80600
N198        N  0.73266149  0.50505555  0.35619530    -0.77700
C199        C  0.75645859  0.48058059  0.35635899     0.83100
N200        N  0.77915353  0.47959772  0.36912437    -0.77600
C201        C  0.77817333  0.50282343  0.38159858     0.83200
N202        N  0.75456801  0.52725060  0.38107834    -0.79300
C203        C  0.27451488  0.53098197  0.37605417     0.80600
N204        N  0.27685736  0.50482791  0.36512626    -0.77700
C205        C  0.25437502  0.47916553  0.36555353     0.83100
N206        N  0.22907281  0.47991005  0.37699606    -0.77600
C207        C  0.22619711  0.50611563  0.38777702     0.83200
N208        N  0.24892420  0.53133887  0.38726499    -0.79300
O209        O  0.04364075  0.71368505  0.11294932    -0.72500
O210        O  0.97326787  0.78469708  0.11216173    -0.73500
O211        O  0.04403662  0.78493033  0.11347562    -0.62100
O212        O  0.97243979  0.71434401  0.11174050    -0.70500
O213        O  0.96939869  0.71497349  0.13955370    -0.70100
O214        O  0.04385176  0.78254151  0.14134590    -0.61400
O215        O  0.97239566  0.78544985  0.13995030    -0.73900
O216        O  0.04055565  0.71114387  0.14076012    -0.72600
Cu217      Cu  0.00852249  0.74938883  0.11163423     1.04600
Cu218      Cu  0.00657937  0.74848102  0.14139834     1.04300
C219        C  0.05306756  0.70091929  0.12689053     0.93700
C220        C  0.96135884  0.79626773  0.12586961     0.92800
C221        C  0.05513893  0.79498180  0.12767101     0.84900
C222        C  0.95873589  0.70441679  0.12537580     0.91200
O223        O  0.46838010  0.71759086  0.38930466    -0.72500
O224        O  0.54231095  0.78592176  0.39055464    -0.73500
O225        O  0.47079055  0.78849938  0.39119504    -0.62100
O226        O  0.53938419  0.71501940  0.38871172    -0.70500
O227        O  0.53891291  0.71831032  0.36095703    -0.70100
O228        O  0.46910899  0.79058060  0.36338686    -0.61400
O229        O  0.54013459  0.78964863  0.36273161    -0.73900
O230        O  0.46782554  0.71995995  0.36150265    -0.72600
Cu231      Cu  0.50529064  0.75167870  0.39091349     1.04600
Cu232      Cu  0.50404696  0.75473484  0.36118333     1.04300
C233        C  0.45628811  0.70800818  0.37521633     0.93700
C234        C  0.55266349  0.79873093  0.37678516     0.92800
C235        C  0.45853882  0.80072023  0.37765718     0.84900
C236        C  0.54994281  0.70481323  0.37445855     0.91200
O237        O  0.45521916  0.28735231  0.64029734    -0.72500
O238        O  0.52679209  0.21682928  0.63951640    -0.73500
O239        O  0.52629824  0.28791364  0.63809684    -0.62100
O240        O  0.45561839  0.21642494  0.64158114    -0.70500
O241        O  0.45309004  0.21336853  0.61380654    -0.70100
O242        O  0.52226904  0.28611936  0.61036927    -0.61400
O243        O  0.52414165  0.21482511  0.61173884    -0.73900
O244        O  0.45088761  0.28413330  0.61254773    -0.72600
Cu245      Cu  0.49113700  0.25219075  0.64082900     1.04600
Cu246      Cu  0.48753714  0.24956631  0.61114320     1.04300
C247        C  0.44126384  0.29641249  0.62657547     0.93700
C248        C  0.53702479  0.20474662  0.62557072     0.92800
C249        C  0.53531322  0.29861405  0.62363851     0.84900
C250        C  0.44313427  0.20358764  0.62824862     0.91200
O251        O  0.03574728  0.21247515  0.85838589    -0.72500
O252        O  0.96678142  0.28601176  0.85542884    -0.73500
O253        O  0.03753183  0.28372787  0.85765478    -0.62100
O254        O  0.96467632  0.21473685  0.85592986    -0.70500
O255        O  0.96132820  0.21506381  0.88375092    -0.70100
O256        O  0.03406669  0.28479838  0.88540808    -0.61400
O257        O  0.96340487  0.28647932  0.88320465    -0.73900
O258        O  0.03188752  0.21348026  0.88618314    -0.72600
Cu259      Cu  0.00131736  0.24917347  0.85588022     1.04600
Cu260      Cu  0.99755186  0.25000021  0.88559615     1.04300
C261        C  0.04438605  0.20111099  0.87278806     0.93700
C262        C  0.95450638  0.29822233  0.86895162     0.92800
C263        C  0.04722966  0.29547603  0.87176127     0.84900
C264        C  0.95153593  0.20387496  0.86951607     0.91200
C265        C  0.35335525  0.57943345  0.36470914    -0.01600
C266        C  0.35152149  0.60744919  0.37539398     0.07000
C267        C  0.32404515  0.61100454  0.38616191    -0.07600
C268        C  0.29849076  0.58694291  0.38658043     0.04400
C269        C  0.30019285  0.55832634  0.37591861    -0.14800
C270        C  0.32788157  0.55530883  0.36500323    -0.08100
C271        C  0.37814241  0.63333015  0.37554630     0.05400
C272        C  0.38181980  0.65428894  0.36154818    -0.09200
C273        C  0.40692147  0.67880597  0.36107716     0.00400
C274        C  0.42897671  0.68268304  0.37492995     0.00200
C275        C  0.42486719  0.66171586  0.38900461    -0.12800
C276        C  0.39982259  0.63716933  0.38938488     0.00700
C277        C  0.40874345  0.69981151  0.34632411     0.40000
C278        C  0.39741047  0.61558187  0.40390747     0.36600
C279        C  0.38173787  0.57444689  0.35372047     0.36400
C280        C  0.27127392  0.59277860  0.39819343     0.37100
N281        N  0.40998399  0.71636519  0.33439215    -0.43700
N282        N  0.39550535  0.59823324  0.41552985    -0.44100
N283        N  0.24968270  0.59772776  0.40759212    -0.41500
N284        N  0.40459543  0.57055535  0.34497812    -0.42900
H285        H  0.33007837  0.53378204  0.35676469     0.13200
H286        H  0.32265243  0.63274700  0.39432855     0.09700
H287        H  0.36491175  0.65145850  0.35095221     0.10800
H288        H  0.44160632  0.66409495  0.39968727     0.16600
C289        C  0.64848702  0.57178302  0.36056265    -0.01600
C290        C  0.65221827  0.60198017  0.36953083     0.07000
C291        C  0.68240870  0.60862235  0.37785855    -0.07600
C292        C  0.70894270  0.58568884  0.37740203     0.04400
C293        C  0.70527488  0.55498494  0.36856707    -0.14800
C294        C  0.67492064  0.54867309  0.36009228    -0.08100
C295        C  0.62506542  0.62723715  0.37042065     0.05400
C296        C  0.60841735  0.63208784  0.38570827    -0.09200
C297        C  0.58355674  0.65668470  0.38734551     0.00400
C298        C  0.57529758  0.67744314  0.37344514     0.00200
C299        C  0.59195409  0.67206168  0.35807707    -0.12800
C300        C  0.61663442  0.64730309  0.35649498     0.00700
C301        C  0.56676006  0.65932275  0.40336644     0.40000
C302        C  0.63366998  0.64349700  0.34060155     0.36600
C303        C  0.61746958  0.56365856  0.35212065     0.36400
C304        C  0.73972839  0.59506789  0.38576226     0.37100
N305        N  0.55335170  0.66122868  0.41622734    -0.43700
N306        N  0.64736748  0.64030480  0.32788617    -0.44100
N307        N  0.76430582  0.60274857  0.39249181    -0.41500
N308        N  0.59259379  0.55717908  0.34535763    -0.42900
H309        H  0.67145364  0.52528728  0.35336452     0.13200
H310        H  0.68531720  0.63205680  0.38463109     0.09700
H311        H  0.61489507  0.61648906  0.39640821     0.10800
H312        H  0.58613084  0.68758125  0.34726723     0.16600
C313        C  0.59626351  0.88090843  0.36848240    -0.01600
C314        C  0.62759228  0.87617316  0.37644164     0.07000
C315        C  0.63372689  0.84603963  0.38508415    -0.07600
C316        C  0.60951394  0.82055936  0.38555476     0.04400
C317        C  0.57877707  0.82490258  0.37702398    -0.14800
C318        C  0.57252124  0.85507779  0.36853078    -0.08100
C319        C  0.65392508  0.90260056  0.37626712     0.05400
C320        C  0.66522295  0.91571714  0.39160496    -0.09200
C321        C  0.68952210  0.94104371  0.39207218     0.00400
C322        C  0.70268177  0.95409495  0.37690295     0.00200
C323        C  0.69157055  0.94072157  0.36156202    -0.12800
C324        C  0.66790633  0.91477319  0.36114242     0.00700
C325        C  0.69966675  0.95376566  0.40829134     0.40000
C326        C  0.65932926  0.90018530  0.34510013     0.36600
C327        C  0.58732892  0.91250107  0.36080357     0.36400
C328        C  0.61720593  0.78981643  0.39435868     0.37100
N329        N  0.70790766  0.96386576  0.42128653    -0.43700
N330        N  0.65247314  0.88842917  0.33225686    -0.44100
N331        N  0.62337431  0.76517352  0.40140840    -0.41500
N332        N  0.58013049  0.93784690  0.35469151    -0.42900
H333        H  0.54861005  0.85878922  0.36227236     0.13200
H334        H  0.65759544  0.84235593  0.39137623     0.09700
H335        H  0.65473750  0.90632481  0.40326971     0.10800
H336        H  0.70205526  0.94997085  0.34987032     0.16600
C337        C  0.32702081  0.90117166  0.38975143    -0.01600
C338        C  0.35795104  0.90522013  0.38149360     0.07000
C339        C  0.36501557  0.93547087  0.37330703    -0.07600
C340        C  0.34165037  0.96171405  0.37316415     0.04400
C341        C  0.31023356  0.95772772  0.38129342    -0.14800
C342        C  0.30355855  0.92733278  0.38966435    -0.08100
C343        C  0.38314470  0.87797135  0.38094358     0.05400
C344        C  0.38478304  0.85767738  0.36663198    -0.09200
C345        C  0.40863745  0.83203214  0.36538517     0.00400
C346        C  0.43199650  0.82682626  0.37856950     0.00200
C347        C  0.42976624  0.84694558  0.39304995    -0.12800
C348        C  0.40554113  0.87228204  0.39432994     0.00700
C349        C  0.40746323  0.81074508  0.35072863     0.40000
C350        C  0.40415936  0.89228733  0.40942570     0.36600
C351        C  0.31865027  0.87012259  0.39809063     0.36400
C352        C  0.35124037  0.99260391  0.36499074     0.37100
N353        N  0.40623853  0.79370946  0.33897884    -0.43700
N354        N  0.40290196  0.90827464  0.42154046    -0.44100
N355        N  0.35908982  0.01729978  0.35843340    -0.41500
N356        N  0.31199877  0.84517758  0.40473671    -0.42900
H357        H  0.27965905  0.92365817  0.39589982     0.13200
H358        H  0.38898029  0.93858035  0.36704012     0.09700
H359        H  0.36710854  0.86174763  0.35645620     0.10800
H360        H  0.44721138  0.84316300  0.40334156     0.16600
C361        C  0.09798242  0.62035456  0.13803607    -0.01600
C362        C  0.12632899  0.62171932  0.12743579     0.07000
C363        C  0.12996300  0.64875969  0.11632457    -0.07600
C364        C  0.10635049  0.67469335  0.11590312     0.04400
C365        C  0.07855156  0.67398423  0.12690787    -0.14800
C366        C  0.07468814  0.64668760  0.13790096    -0.08100
C367        C  0.15302716  0.59576790  0.12788532     0.05400
C368        C  0.15981880  0.57727387  0.11328105    -0.09200
C369        C  0.18614149  0.55401598  0.11286753     0.00400
C370        C  0.20597393  0.54875270  0.12734472     0.00200
C371        C  0.19890491  0.56695660  0.14200870    -0.12800
C372        C  0.17307700  0.59075448  0.14229543     0.00700
C373        C  0.19172130  0.53529507  0.09759169     0.40000
C374        C  0.16872532  0.61095432  0.15719428     0.36600
C375        C  0.09177020  0.59174190  0.14872426     0.36400
C376        C  0.11199642  0.70232294  0.10450729     0.37100
N377        N  0.19622281  0.52028562  0.08535512    -0.43700
N378        N  0.16518610  0.62731313  0.16906953    -0.44100
N379        N  0.11649162  0.72445154  0.09536640    -0.41500
N380        N  0.08675937  0.56873226  0.15723014    -0.42900
H381        H  0.05302808  0.64556628  0.14612525     0.13200
H382        H  0.15167821  0.64985219  0.10812941     0.09700
H383        H  0.14459358  0.58119661  0.10214762     0.10800
H384        H  0.21430817  0.56333396  0.15310717     0.16600
C385        C  0.82410941  0.60639364  0.11351691    -0.01600
C386        C  0.85319072  0.60569215  0.12349502     0.07000
C387        C  0.85975737  0.57782000  0.13363743    -0.07600
C388        C  0.83823092  0.55014636  0.13370566     0.04400
C389        C  0.80915611  0.55017214  0.12338310    -0.14800
C390        C  0.80242212  0.57883038  0.11352462    -0.08100
C391        C  0.87825891  0.63289258  0.12303444     0.05400
C392        C  0.87935995  0.65597363  0.13626227    -0.09200
C393        C  0.90488022  0.68000613  0.13710999     0.00400
C394        C  0.93028254  0.68060255  0.12467169     0.00200
C395        C  0.92831947  0.65807071  0.11113312    -0.12800
C396        C  0.90256319  0.63434202  0.11023556     0.00700
C397        C  0.90363153  0.70433041  0.15054277     0.40000
C398        C  0.90197906  0.61110608  0.09632609     0.36600
C399        C  0.81607930  0.63508314  0.10318599     0.36400
C400        C  0.84756012  0.52214433  0.14422308     0.37100
N401        N  0.90246727  0.72393587  0.16124729    -0.43700
N402        N  0.90133867  0.59247805  0.08518521    -0.44100
N403        N  0.85543575  0.50002126  0.15278173    -0.41500
N404        N  0.80953368  0.65805945  0.09491606    -0.42900
H405        H  0.78014717  0.57986463  0.10571677     0.13200
H406        H  0.88229816  0.57745342  0.14129745     0.09700
H407        H  0.86034083  0.65501385  0.14599479     0.10800
H408        H  0.94735744  0.65847357  0.10140535     0.16600
C409        C  0.86554783  0.93136338  0.12780587    -0.01600
C410        C  0.85950677  0.89947221  0.12084001     0.07000
C411        C  0.82873135  0.89301213  0.11299276    -0.07600
C412        C  0.80382686  0.91767990  0.11210894     0.04400
C413        C  0.80943359  0.94959167  0.11949019    -0.14800
C414        C  0.84057854  0.95593398  0.12718730    -0.08100
C415        C  0.88478894  0.87234467  0.12195652     0.05400
C416        C  0.89446886  0.86068266  0.13785299    -0.09200
C417        C  0.91895331  0.83576696  0.13958832     0.00400
C418        C  0.93454525  0.82218717  0.12509915     0.00200
C419        C  0.92398273  0.83349289  0.10916608    -0.12800
C420        C  0.89930241  0.85814466  0.10750027     0.00700
C421        C  0.92701153  0.82473354  0.15639850     0.40000
C422        C  0.88981942  0.86890339  0.09082237     0.36600
C423        C  0.89747594  0.93967372  0.13532069     0.36400
C424        C  0.77275060  0.90883278  0.10389354     0.37100
N425        N  0.93322114  0.81596018  0.16991454    -0.43700
N426        N  0.88212930  0.87734678  0.07744643    -0.44100
N427        N  0.74807855  0.90139486  0.09718647    -0.41500
N428        N  0.92310653  0.94626770  0.14130464    -0.42900
H429        H  0.84569467  0.98033476  0.13262800     0.13200
H430        H  0.82404757  0.86839653  0.10767955     0.09700
H431        H  0.88274807  0.87116079  0.14897763     0.10800
H432        H  0.93512590  0.82324226  0.09785472     0.16600
C433        C  0.13532512  0.84031114  0.13894425    -0.01600
C434        C  0.13265831  0.86992548  0.12933347     0.07000
C435        C  0.10402985  0.87515657  0.11941069    -0.07600
C436        C  0.07840829  0.85110722  0.11877780     0.04400
C437        C  0.08124305  0.82127049  0.12825915    -0.14800
C438        C  0.10956645  0.81641445  0.13846032    -0.08100
C439        C  0.15966233  0.89557394  0.12942060     0.05400
C440        C  0.18984224  0.88861768  0.12115017    -0.09200
C441        C  0.21642132  0.91162547  0.12128958     0.00400
C442        C  0.21298202  0.94271956  0.12985913     0.00200
C443        C  0.18240658  0.94947492  0.13808337    -0.12800
C444        C  0.15595734  0.92630234  0.13791205     0.00700
C445        C  0.24705815  0.90161232  0.11302083     0.40000
C446        C  0.12550229  0.93416974  0.14689180     0.36600
C447        C  0.16417788  0.83413431  0.14947828     0.36400
C448        C  0.04883494  0.85821621  0.10889169     0.37100
N449        N  0.27139374  0.89300571  0.10636868    -0.43700
N450        N  0.10108287  0.94035593  0.15411121    -0.44100
N451        N  0.02501105  0.86392522  0.10107100    -0.41500
N452        N  0.18737427  0.82928653  0.15789047    -0.42900
H453        H  0.11183156  0.79363952  0.14583718     0.13200
H454        H  0.10176603  0.89805985  0.11213635     0.09700
H455        H  0.19273544  0.86483280  0.11469032     0.10800
H456        H  0.17899925  0.97298882  0.14470237     0.16600
C457        C  0.29233345  0.37337446  0.20447926    -0.01600
C458        C  0.26481130  0.38028911  0.19390947     0.07000
C459        C  0.23600536  0.36026848  0.19500266    -0.07600
C460        C  0.23420593  0.33357210  0.20639203     0.04400
C461        C  0.26193355  0.32623681  0.21692738    -0.14800
C462        C  0.29078321  0.34646935  0.21577621    -0.08100
C463        C  0.26589196  0.40732613  0.18109069     0.05400
C464        C  0.28867700  0.40462937  0.16778029    -0.09200
C465        C  0.28886379  0.42802957  0.15465040     0.00400
C466        C  0.26554403  0.45503557  0.15464004     0.00200
C467        C  0.24334989  0.45797254  0.16835710    -0.12800
C468        C  0.24336713  0.43451624  0.18145228     0.00700
C469        C  0.31292659  0.42279546  0.14134589     0.40000
C470        C  0.22022202  0.43899437  0.19522650     0.36600
C471        C  0.32202409  0.39411229  0.20427077     0.36400
C472        C  0.20385141  0.31381866  0.20658245     0.37100
N473        N  0.33230899  0.41846075  0.13074113    -0.43700
N474        N  0.20171836  0.44254705  0.20628338    -0.44100
N475        N  0.17943171  0.29812626  0.20671084    -0.41500
N476        N  0.34575845  0.41081859  0.20413905    -0.42900
H477        H  0.31207577  0.34163886  0.22391790     0.13200
H478        H  0.21492662  0.36533565  0.18674633     0.09700
H479        H  0.30596142  0.38360547  0.16747122     0.10800
H480        H  0.22560641  0.47855268  0.16889222     0.16600
C481        C  0.28190328  0.15249912  0.19049045    -0.01600
C482        C  0.25995036  0.12480896  0.19180089     0.07000
C483        C  0.23755083  0.12336589  0.20539876    -0.07600
C484        C  0.23674023  0.14885050  0.21754351     0.04400
C485        C  0.25887600  0.17643658  0.21629150    -0.14800
C486        C  0.28141407  0.17777825  0.20275064    -0.08100
C487        C  0.26069978  0.09664363  0.17944424     0.05400
C488        C  0.29037022  0.07801967  0.17748414    -0.09200
C489        C  0.29219309  0.05140170  0.16600454     0.00400
C490        C  0.26382199  0.04275772  0.15628651     0.00200
C491        C  0.23391878  0.06083493  0.15852396    -0.12800
C492        C  0.23223118  0.08774499  0.16984738     0.00700
C493        C  0.32302505  0.03250507  0.16495580     0.40000
C494        C  0.20142793  0.10668052  0.17089500     0.36600
C495        C  0.30452684  0.15596991  0.17643594     0.36400
C496        C  0.21418294  0.14516957  0.23161785     0.37100
N497        N  0.34773417  0.01732959  0.16418744    -0.43700
N498        N  0.17676204  0.12191614  0.17168402    -0.44100
N499        N  0.19619987  0.14212539  0.24292751    -0.41500
N500        N  0.32258884  0.15875659  0.16514253    -0.42900
H501        H  0.29838453  0.19891695  0.20161200     0.13200
H502        H  0.22098642  0.10193864  0.20666853     0.09700
H503        H  0.31215748  0.08420665  0.18504555     0.10800
H504        H  0.21205019  0.05451014  0.15104836     0.16600
C505        C  0.26942268  0.43408820  0.32434328    -0.01600
C506        C  0.25987168  0.40073585  0.32811763     0.07000
C507        C  0.24971578  0.39312275  0.34460053    -0.07600
C508        C  0.24771654  0.41805600  0.35698522     0.04400
C509        C  0.25673573  0.45147301  0.35310546    -0.14800
C510        C  0.26799592  0.45887290  0.33679831    -0.08100
C511        C  0.26040195  0.37357172  0.31512765     0.05400
C512        C  0.28976230  0.36804576  0.30576490    -0.09200
C513        C  0.29087044  0.34403013  0.29291006     0.00400
C514        C  0.26243936  0.32377677  0.28955955     0.00200
C515        C  0.23332887  0.32880469  0.29921460    -0.12800
C516        C  0.23200439  0.35337504  0.31178650     0.00700
C517        C  0.32105025  0.34209020  0.28292915     0.40000
C518        C  0.20082224  0.35773437  0.32075817     0.36600
C519        C  0.28004686  0.44391408  0.30770525     0.36400
C520        C  0.23735621  0.40831257  0.37367286     0.37100
N521        N  0.34520352  0.34088306  0.27488758    -0.43700
N522        N  0.17584159  0.36095171  0.32798467    -0.44100
N523        N  0.22903868  0.40045990  0.38703869    -0.41500
N524        N  0.28887621  0.45182461  0.29443104    -0.42900
H525        H  0.27497341  0.48439053  0.33361571     0.13200
H526        H  0.24337068  0.36747902  0.34784236     0.09700
H527        H  0.31192628  0.38294053  0.30835845     0.10800
H528        H  0.21128874  0.31353838  0.29691153     0.16600
C529        C  0.22959846  0.13058875  0.30202992    -0.01600
C530        C  0.25451809  0.12862743  0.31455496     0.07000
C531        C  0.28130212  0.15138036  0.31433491    -0.07600
C532        C  0.28359212  0.17602562  0.30187620     0.04400
C533        C  0.25872690  0.17802615  0.28923358    -0.14800
C534        C  0.23181383  0.15523786  0.28954354    -0.08100
C535        C  0.25323977  0.10326331  0.32813667     0.05400
C536        C  0.25886718  0.06944948  0.32420636    -0.09200
C537        C  0.26021976  0.04512424  0.33689381     0.00400
C538        C  0.25589878  0.05466482  0.35384849     0.00200
C539        C  0.24924857  0.08838681  0.35767619    -0.12800
C540        C  0.24803328  0.11267000  0.34500403     0.00700
C541        C  0.26479689  0.01048462  0.33213510     0.40000
C542        C  0.24114721  0.14704835  0.34955451     0.36600
C543        C  0.20115023  0.10818248  0.30199135     0.36400
C544        C  0.31079874  0.19983937  0.30291449     0.37100
N545        N  0.26828314  0.98268680  0.32833956    -0.43700
N546        N  0.23560315  0.17460727  0.35316834    -0.44100
N547        N  0.33255239  0.21896526  0.30384529    -0.41500
N548        N  0.17828719  0.09030131  0.30194132    -0.42900
H549        H  0.21247417  0.15661400  0.27997315     0.13200
H550        H  0.30035882  0.15000532  0.32405475     0.09700
H551        H  0.26256775  0.06214941  0.31121027     0.10800
H552        H  0.24552990  0.09588621  0.37064326     0.16600
C553        C  0.85520648  0.06782482  0.86259649    -0.01600
C554        C  0.84917628  0.10105241  0.86779898     0.07000
C555        C  0.81702208  0.11020237  0.87319466    -0.07600
C556        C  0.79107759  0.08657959  0.87391124     0.04400
C557        C  0.79717466  0.05292123  0.86914253    -0.14800
C558        C  0.82927159  0.04410822  0.86325508    -0.08100
C559        C  0.87612548  0.12666680  0.86803676     0.05400
C560        C  0.87617512  0.15193774  0.85578731    -0.09200
C561        C  0.90054735  0.17726079  0.85597524     0.00400
C562        C  0.92516070  0.17776242  0.86878859     0.00200
C563        C  0.92483088  0.15252947  0.88111931    -0.12800
C564        C  0.90076209  0.12695443  0.88074803     0.00700
C565        C  0.89890933  0.20309570  0.84326999     0.40000
C566        C  0.90152837  0.10142361  0.89361668     0.36600
C567        C  0.88774770  0.05767817  0.85646358     0.36400
C568        C  0.75823552  0.09796453  0.87901463     0.37100
N569        N  0.89764634  0.22384291  0.83311099    -0.43700
N570        N  0.90210507  0.08082752  0.90386429    -0.44100
N571        N  0.73189702  0.10711365  0.88306473    -0.41500
N572        N  0.91385677  0.04966194  0.85153712    -0.42900
H573        H  0.83428681  0.01850958  0.85940206     0.13200
H574        H  0.81227106  0.13590782  0.87697453     0.09700
H575        H  0.85700957  0.15191692  0.84610279     0.10800
H576        H  0.94369785  0.15253344  0.89094949     0.16600
C577        C  0.11994069  0.14701410  0.86324495    -0.01600
C578        C  0.11755208  0.12186266  0.87566798     0.07000
C579        C  0.09103419  0.12288789  0.88721443    -0.07600
C580        C  0.06685716  0.14833191  0.88647731     0.04400
C581        C  0.06909434  0.17347872  0.87397187    -0.14800
C582        C  0.09562998  0.17232200  0.86239178    -0.08100
C583        C  0.14260027  0.09442844  0.87699255     0.05400
C584        C  0.16316287  0.09276294  0.89125486    -0.09200
C585        C  0.18757373  0.06765349  0.89295455     0.00400
C586        C  0.19159545  0.04319170  0.88014779     0.00200
C587        C  0.17013503  0.04468141  0.86605961    -0.12800
C588        C  0.14593018  0.06987127  0.86440516     0.00700
C589        C  0.20766818  0.06794178  0.90805277     0.40000
C590        C  0.12460707  0.06982037  0.84971857     0.36600
C591        C  0.14760320  0.14789457  0.85154994     0.36400
C592        C  0.03937593  0.14720109  0.89829148     0.37100
N593        N  0.22361957  0.06859403  0.92020695    -0.43700
N594        N  0.10765328  0.06986530  0.83790628    -0.44100
N595        N  0.01733153  0.14622738  0.90773787    -0.41500
N596        N  0.16976419  0.14857316  0.84217005    -0.42900
H597        H  0.09778026  0.19165005  0.85285495     0.13200
H598        H  0.08906696  0.10350449  0.89673533     0.09700
H599        H  0.16033561  0.11148127  0.90104391     0.10800
H600        H  0.17238956  0.02634299  0.85607360     0.16600
C601        C  0.63310707  0.97729098  0.04376792    -0.01600
C602        C  0.62975514  0.99580956  0.05876898     0.07000
C603        C  0.60015133  0.01374161  0.06184975    -0.07600
C604        C  0.57393008  0.01353079  0.05018481     0.04400
C605        C  0.57741628  0.99536222  0.03509202    -0.14800
C606        C  0.60685164  0.97703471  0.03210675    -0.08100
C607        C  0.65680857  0.99703313  0.07144308     0.05400
C608        C  0.67390109  0.02734343  0.07397198    -0.09200
C609        C  0.69945099  0.02972560  0.08597346     0.00400
C610        C  0.70823920  0.00129541  0.09557036     0.00200
C611        C  0.69088965  0.97106104  0.09310708    -0.12800
C612        C  0.66509052  0.96881124  0.08126169     0.00700
C613        C  0.71703983  0.06117035  0.08775074     0.40000
C614        C  0.64679178  0.93769892  0.07973844     0.36600
C615        C  0.66345737  0.95906527  0.03991220     0.36400
C616        C  0.54310843  0.03067132  0.05434494     0.37100
N617        N  0.73115431  0.08636978  0.08916312    -0.43700
N618        N  0.63201042  0.91283858  0.07853620    -0.44100
N619        N  0.51828514  0.04413088  0.05772280    -0.41500
N620        N  0.68773336  0.94441510  0.03678753    -0.42900
H621        H  0.60955993  0.96302841  0.02050139     0.13200
H622        H  0.59743063  0.02760447  0.07349744     0.09700
H623        H  0.66738329  0.04909261  0.06645101     0.10800
H624        H  0.69711290  0.94932122  0.10068167     0.16600
C625        C  0.41267285  0.96298490  0.06327850    -0.01600
C626        C  0.38953272  0.98920403  0.06590136     0.07000
C627        C  0.38835938  0.01597157  0.05452658    -0.07600
C628        C  0.40973042  0.01695912  0.04058734     0.04400
C629        C  0.43333699  0.99089251  0.03797014    -0.14800
C630        C  0.43428697  0.96397844  0.04939556    -0.08100
C631        C  0.36523825  0.98867996  0.08001159     0.05400
C632        C  0.36893565  0.01155579  0.09322830    -0.09200
C633        C  0.34548842  0.01300595  0.10636203     0.00400
C634        C  0.31739694  0.99101046  0.10640927     0.00200
C635        C  0.31408231  0.96817889  0.09296683    -0.12800
C636        C  0.33748710  0.96695173  0.07989824     0.00700
C637        C  0.35106081  0.03785967  0.11924347     0.40000
C638        C  0.33184438  0.94405111  0.06612734     0.36600
C639        C  0.41490603  0.93508613  0.07479724     0.36400
C640        C  0.40576963  0.04434045  0.02885847     0.37100
N641        N  0.35586268  0.05813742  0.12936300    -0.43700
N642        N  0.32739818  0.92580927  0.05504343    -0.44100
N643        N  0.40246034  0.06620966  0.01943133    -0.41500
N644        N  0.41660213  0.91271976  0.08403306    -0.42900
H645        H  0.45232771  0.94391574  0.04765315     0.13200
H646        H  0.37016510  0.03587101  0.05639071     0.09700
H647        H  0.39015034  0.02859661  0.09317999     0.10800
H648        H  0.29266734  0.95154833  0.09233547     0.16600
C649        C  0.61432269  0.97053925  0.94383904    -0.01600
C650        C  0.62556287  0.00132989  0.93725798     0.07000
C651        C  0.61145523  0.03123543  0.94312771    -0.07600
C652        C  0.58628295  0.03096742  0.95539467     0.04400
C653        C  0.57488186  0.00001993  0.96218972    -0.14800
C654        C  0.58934490  0.97008932  0.95619817    -0.08100
C655        C  0.65077757  0.00277827  0.92359920     0.05400
C656        C  0.64154156  0.99156709  0.90759207    -0.09200
C657        C  0.66429279  0.99241337  0.89424186     0.00400
C658        C  0.69735758  0.00437905  0.89685931     0.00200
C659        C  0.70629235  0.01634248  0.91287482    -0.12800
C660        C  0.68330482  0.01563467  0.92620318     0.00700
C661        C  0.65241621  0.98204900  0.87789679     0.40000
C662        C  0.69381171  0.02742180  0.94253063     0.36600
C663        C  0.62838809  0.93910747  0.93821831     0.36400
C664        C  0.57257153  0.06297048  0.96039730     0.37100
N665        N  0.64284088  0.97381588  0.86480034    -0.43700
N666        N  0.70215866  0.03686115  0.95563170    -0.44100
N667        N  0.56167730  0.08872389  0.96430179    -0.41500
N668        N  0.63968904  0.91395113  0.93368920    -0.42900
H669        H  0.58122828  0.94611196  0.96117115     0.13200
H670        H  0.61984129  0.05491325  0.93788079     0.09700
H671        H  0.61626290  0.98236913  0.90550783     0.10800
H672        H  0.73147718  0.02562047  0.91509387     0.16600
C673        C  0.39985702  0.02036980  0.94066928    -0.01600
C674        C  0.37615577  0.99426891  0.93991487     0.07000
C675        C  0.37852402  0.96731961  0.95114271    -0.07600
C676        C  0.40408070  0.96616881  0.96320158     0.04400
C677        C  0.42759954  0.99270554  0.96423675    -0.14800
C678        C  0.42510597  0.01959252  0.95287247    -0.08100
C679        C  0.34855138  0.99477591  0.92751889     0.05400
C680        C  0.35554626  0.98654072  0.91079919    -0.09200
C681        C  0.33013814  0.98671414  0.89867151     0.00400
C682        C  0.29694580  0.99542334  0.90327707     0.00200
C683        C  0.29019883  0.00414528  0.92003852    -0.12800
C684        C  0.31565399  0.00367487  0.93216460     0.00700
C685        C  0.33924787  0.97888031  0.88155911     0.40000
C686        C  0.30758585  0.01243188  0.94929292     0.36600
C687        C  0.39852810  0.04826380  0.92911045     0.36400
C688        C  0.40479481  0.93800784  0.97462304     0.37100
N689        N  0.34693550  0.97261861  0.86789657    -0.43700
N690        N  0.30124484  0.01937691  0.96304607    -0.44100
N691        N  0.40537845  0.91539165  0.98374312    -0.41500
N692        N  0.39745113  0.07051268  0.91978192    -0.42900
H693        H  0.44314414  0.03992506  0.95339933     0.13200
H694        H  0.36025203  0.94720294  0.95049214     0.09700
H695        H  0.38098583  0.97997806  0.90723905     0.10800
H696        H  0.26484238  0.01056127  0.92376531     0.16600
C697        C  0.78391729  0.36945487  0.19845699    -0.01600
C698        C  0.76211845  0.36845798  0.18448002     0.07000
C699        C  0.73922563  0.34192450  0.18296909    -0.07600
C700        C  0.73703945  0.31713377  0.19535067     0.04400
C701        C  0.75820582  0.31858503  0.20958083    -0.14800
C702        C  0.78188481  0.34452932  0.21082811    -0.08100
C703        C  0.76249525  0.39488837  0.17133512     0.05400
C704        C  0.79170907  0.39993005  0.16181155    -0.09200
C705        C  0.79273600  0.42441904  0.14920472     0.00400
C706        C  0.76407510  0.44409293  0.14592883     0.00200
C707        C  0.73473923  0.43873609  0.15523059    -0.12800
C708        C  0.73379067  0.41454654  0.16794764     0.00700
C709        C  0.82286111  0.42786838  0.13928968     0.40000
C710        C  0.70336843  0.41095000  0.17762759     0.36600
C711        C  0.80785162  0.39629033  0.20061488     0.36400
C712        C  0.71380812  0.28980346  0.19279515     0.37100
N713        N  0.84692343  0.43053007  0.13126953    -0.43700
N714        N  0.67899364  0.40802941  0.18538249    -0.44100
N715        N  0.69531620  0.26781926  0.19071658    -0.41500
N716        N  0.82708253  0.41777015  0.20228953    -0.42900
H717        H  0.79831684  0.34575775  0.22168184     0.13200
H718        H  0.72299515  0.34061124  0.17203941     0.09700
H719        H  0.81361278  0.38444723  0.16412883     0.10800
H720        H  0.71269703  0.45393421  0.15274421     0.16600
C721        C  0.78888276  0.14432067  0.18945732    -0.01600
C722        C  0.76001405  0.12942540  0.18258434     0.07000
C723        C  0.72844620  0.13776074  0.18907116    -0.07600
C724        C  0.72523021  0.16054645  0.20238263     0.04400
C725        C  0.75422581  0.17585882  0.20935006    -0.14800
C726        C  0.78582218  0.16738475  0.20261291    -0.08100
C727        C  0.76222436  0.10384875  0.16914466     0.05400
C728        C  0.77231563  0.07129278  0.17341230    -0.09200
C729        C  0.77299100  0.04578693  0.16133807     0.00400
C730        C  0.76321845  0.05277332  0.14458366     0.00200
C731        C  0.75357003  0.08562083  0.14032972    -0.12800
C732        C  0.75328010  0.11114449  0.15241475     0.00700
C733        C  0.78226241  0.01246546  0.16675348     0.40000
C734        C  0.74435633  0.14474813  0.14733931     0.36600
C735        C  0.82190003  0.13639696  0.18314614     0.36400
C736        C  0.69188990  0.16683439  0.20872627     0.37100
N737        N  0.78970979  0.98579508  0.17113334    -0.43700
N738        N  0.73744811  0.17173151  0.14323672    -0.44100
N739        N  0.66507722  0.17159244  0.21376766    -0.41500
N740        N  0.84837588  0.13001853  0.17811524    -0.42900
H741        H  0.80842055  0.17877050  0.20760556     0.13200
H742        H  0.70624519  0.12592305  0.18386883     0.09700
H743        H  0.77909756  0.06569345  0.18631886     0.10800
H744        H  0.74647550  0.09144518  0.12749587     0.16600
C745        C  0.76675043  0.34189975  0.31048178    -0.01600
C746        C  0.75190863  0.37340653  0.30707807     0.07000
C747        C  0.73671666  0.37877020  0.29136807    -0.07600
C748        C  0.73571349  0.35333111  0.27925952     0.04400
C749        C  0.75070962  0.32201806  0.28265730    -0.14800
C750        C  0.76636381  0.31670198  0.29821620    -0.08100
C751        C  0.75273329  0.40131300  0.31951954     0.05400
C752        C  0.78383746  0.41259745  0.32557486    -0.09200
C753        C  0.78581742  0.43860187  0.33736286     0.00400
C754        C  0.75614662  0.45402761  0.34329803     0.00200
C755        C  0.72510181  0.44336422  0.33685042    -0.12800
C756        C  0.72315067  0.41726667  0.32512897     0.00700
C757        C  0.81869579  0.44975411  0.34254170     0.40000
C758        C  0.69039685  0.40683389  0.31939405     0.36600
C759        C  0.78179199  0.33451057  0.32658176     0.36400
C760        C  0.72055334  0.36044757  0.26315709     0.37100
N761        N  0.84516122  0.45863009  0.34654223    -0.43700
N762        N  0.66412575  0.39865886  0.31474762    -0.44100
N763        N  0.70852421  0.36613823  0.25022501    -0.41500
N764        N  0.79386641  0.32857054  0.33947580    -0.42900
H765        H  0.77784272  0.29260016  0.30088132     0.13200
H766        H  0.72592468  0.40307825  0.28848294     0.09700
H767        H  0.80674240  0.40118459  0.32094451     0.10800
H768        H  0.70211237  0.45493740  0.34127096     0.16600
C769        C  0.72267755  0.07813234  0.32570813    -0.01600
C770        C  0.74577868  0.10468344  0.32492259     0.07000
C771        C  0.77007581  0.10787286  0.33752455    -0.07600
C772        C  0.77202748  0.08472101  0.35077249     0.04400
C773        C  0.74944446  0.05710654  0.35141665    -0.14800
C774        C  0.72470850  0.05465355  0.33876783    -0.08100
C775        C  0.74564451  0.12885808  0.31075401     0.04200
C776        C  0.72280107  0.15560155  0.31084696    -0.09200
C777        C  0.72245161  0.17916645  0.29775431     0.00400
C778        C  0.74559542  0.17625948  0.28436589     0.00200
C779        C  0.76823032  0.14924898  0.28427810    -0.12800
C780        C  0.76814609  0.12544522  0.29722173     0.00700
C781        C  0.69912423  0.20681648  0.29875127     0.40000
C782        C  0.79088998  0.09732641  0.29624122     0.36600
C783        C  0.69700776  0.07425310  0.31304962     0.36400
C784        C  0.79740923  0.09056918  0.36339206     0.37100
N785        N  0.68044511  0.22899110  0.29953567    -0.43700
N786        N  0.80890920  0.07462207  0.29543371    -0.44100
N787        N  0.81781391  0.09567174  0.37342678    -0.41500
N788        N  0.67643839  0.07131563  0.30288794    -0.42900
H789        H  0.70687383  0.03414458  0.33889969     0.13200
H790        H  0.78769138  0.12858100  0.33695610     0.09700
H791        H  0.70542915  0.15819016  0.32125058     0.10800
H792        H  0.78582822  0.14655268  0.27397616     0.16600
C793        C  0.14335821  0.43186964  0.87098726    -0.01600
C794        C  0.14904491  0.39853319  0.87600980     0.07000
C795        C  0.18082051  0.38896010  0.88177351    -0.07600
C796        C  0.20712076  0.41215245  0.88252995     0.04400
C797        C  0.20166643  0.44569740  0.87735444    -0.14800
C798        C  0.16960562  0.45509176  0.87162080    -0.08100
C799        C  0.12241346  0.37291104  0.87492137     0.05400
C800        C  0.11961006  0.35393559  0.86021305    -0.09200
C801        C  0.09534291  0.32874138  0.85876617     0.00400
C802        C  0.07342953  0.32200176  0.87240536     0.00200
C803        C  0.07635842  0.34145877  0.88709942    -0.12800
C804        C  0.10046175  0.36682994  0.88839607     0.00700
C805        C  0.09423216  0.31004152  0.84323957     0.40000
C806        C  0.10220486  0.38644960  0.90361452     0.36600
C807        C  0.11080172  0.44271629  0.86516202     0.36400
C808        C  0.23956824  0.40026994  0.88798724     0.37100
N809        N  0.09345841  0.29525892  0.83073245    -0.43700
N810        N  0.10357941  0.40228987  0.91577549    -0.44100
N811        N  0.26543718  0.39036873  0.89236126    -0.41500
N812        N  0.08467891  0.45141514  0.86053281    -0.42900
H813        H  0.16489856  0.48075065  0.86774501     0.13200
H814        H  0.18512323  0.36314958  0.88552789     0.09700
H815        H  0.13660947  0.35877929  0.84984899     0.10800
H816        H  0.05957965  0.33710727  0.89759625     0.16600
C817        C  0.85429701  0.43225310  0.85956784    -0.01600
C818        C  0.85087937  0.39957209  0.86601313     0.07000
C819        C  0.81999647  0.38924658  0.87257547    -0.07600
C820        C  0.79248960  0.41105888  0.87290533     0.04400
C821        C  0.79580418  0.44416461  0.86665522    -0.14800
C822        C  0.82684971  0.45419857  0.85987706    -0.08100
C823        C  0.87909395  0.37547929  0.86607838     0.05400
C824        C  0.89865742  0.37240817  0.88060345    -0.09200
C825        C  0.92384164  0.34802230  0.88172253     0.00400
C826        C  0.92955322  0.32587302  0.86807952     0.00200
C827        C  0.91049582  0.32989672  0.85332309    -0.12800
C828        C  0.88536141  0.35436403  0.85227072     0.00700
C829        C  0.94364775  0.34686193  0.89692258     0.40000
C830        C  0.86567842  0.35687784  0.83708768     0.36600
C831        C  0.88580100  0.44383809  0.85276769     0.36400
C832        C  0.76101764  0.39820478  0.87915676     0.37100
N833        N  0.95950518  0.34600803  0.90910635    -0.43700
N834        N  0.84982144  0.35896505  0.82494520    -0.44100
N835        N  0.73584651  0.38772738  0.88414521    -0.41500
N836        N  0.91105827  0.45315164  0.84733212    -0.42900
H837        H  0.82992572  0.47946189  0.85506523     0.13200
H838        H  0.81736569  0.36390139  0.87736718     0.09700
H839        H  0.89393682  0.38891995  0.89117387     0.10800
H840        H  0.91458494  0.31332646  0.84271774     0.16600
C841        C  0.38733652  0.52506251  0.05091483    -0.01600
C842        C  0.38516868  0.50072184  0.06373079     0.07000
C843        C  0.40804837  0.47399859  0.06385956    -0.07600
C844        C  0.43299262  0.47126848  0.05152643     0.04400
C845        C  0.43528466  0.49564554  0.03863324    -0.14800
C846        C  0.41235819  0.52249429  0.03861407    -0.08100
C847        C  0.35867723  0.50201530  0.07685571     0.05400
C848        C  0.33461076  0.47633400  0.07738913    -0.09200
C849        C  0.30946149  0.47624208  0.08967024     0.00400
C850        C  0.30792869  0.50241274  0.10152804     0.00200
C851        C  0.33185152  0.52812975  0.10102638    -0.12800
C852        C  0.35744386  0.52788206  0.08896298     0.00700
C853        C  0.28531707  0.44925728  0.08980103     0.40000
C854        C  0.38296742  0.55351253  0.08973224     0.36600
C855        C  0.36350467  0.55227491  0.04983363     0.36400
C856        C  0.45647325  0.44380368  0.05280759     0.37100
N857        N  0.26595369  0.42764046  0.08991708    -0.43700
N858        N  0.40348395  0.57399255  0.09043100    -0.44100
N859        N  0.47528129  0.42179002  0.05391183    -0.41500
N860        N  0.34438357  0.57406694  0.04901813    -0.42900
H861        H  0.41351338  0.54122306  0.02874280     0.13200
H862        H  0.40650418  0.45528209  0.07372937     0.09700
H863        H  0.33554760  0.45629271  0.06818965     0.10800
H864        H  0.33107541  0.54790279  0.11037610     0.16600
C865        C  0.65920532  0.47533630  0.08586751    -0.01600
C866        C  0.66370309  0.49217053  0.07049354     0.07000
C867        C  0.69364417  0.50940559  0.06741898    -0.07600
C868        C  0.71919242  0.51017707  0.07949411     0.04400
C869        C  0.71468273  0.49360146  0.09511053    -0.14800
C870        C  0.68460040  0.47605939  0.09797634    -0.08100
C871        C  0.63698729  0.49266107  0.05763323     0.05400
C872        C  0.61711953  0.52142392  0.05602943    -0.09200
C873        C  0.59035914  0.52238036  0.04464886     0.00400
C874        C  0.58304437  0.49385991  0.03466807     0.00200
C875        C  0.60354443  0.46526670  0.03618709    -0.12800
C876        C  0.63049050  0.46459969  0.04744006     0.00700
C877        C  0.57052538  0.55266488  0.04391639     0.40000
C878        C  0.65153402  0.43514336  0.04813696     0.36600
C879        C  0.62835030  0.45791406  0.08963206     0.36400
C880        C  0.74989178  0.52741287  0.07521760     0.37100
N881        N  0.55478552  0.57703951  0.04334742    -0.43700
N882        N  0.66855441  0.41164304  0.04862989    -0.44100
N883        N  0.77444758  0.54124518  0.07173157    -0.41500
N884        N  0.60357585  0.44402954  0.09262895    -0.42900
H885        H  0.68051891  0.46337595  0.10985772     0.13200
H886        H  0.69705794  0.52219043  0.05550405     0.09700
H887        H  0.62228213  0.54302849  0.06389984     0.10800
H888        H  0.59879625  0.44342764  0.02842727     0.16600
C889        C  0.37389370  0.47423054  0.95685623    -0.01600
C890        C  0.37934289  0.48921164  0.94102465     0.07000
C891        C  0.41053448  0.50366118  0.93738557    -0.07600
C892        C  0.43628883  0.50339916  0.94929161     0.04400
C893        C  0.43091655  0.48833737  0.96509290    -0.14800
C894        C  0.39986933  0.47349908  0.96869636    -0.08100
C895        C  0.35282862  0.49040161  0.92806192     0.05400
C896        C  0.33911363  0.52154594  0.92363426    -0.09200
C897        C  0.31430550  0.52387683  0.91124886     0.00400
C898        C  0.30275358  0.49448838  0.90317299     0.00200
C899        C  0.31674325  0.46339275  0.90758566    -0.12800
C900        C  0.34185395  0.46118062  0.91979210     0.00700
C901        C  0.30054245  0.55654658  0.90748216     0.40000
C902        C  0.35683898  0.42890533  0.92320062     0.36600
C903        C  0.34153937  0.46072372  0.96141155     0.36400
C904        C  0.46834173  0.51781852  0.94486793     0.37100
N905        N  0.28959475  0.58275619  0.90445926    -0.43700
N906        N  0.36896342  0.40307545  0.92588636    -0.44100
N907        N  0.49409897  0.52922896  0.94136360    -0.41500
N908        N  0.31553748  0.45007464  0.96505928    -0.42900
H909        H  0.39563519  0.46225414  0.98092824     0.13200
H910        H  0.41475032  0.51504831  0.92518338     0.09700
H911        H  0.34775109  0.54405286  0.92994772     0.10800
H912        H  0.30860408  0.44083574  0.90119592     0.16600
C913        C  0.63922225  0.50358860  0.90540258    -0.01600
C914        C  0.64709748  0.48923568  0.92109865     0.07000
C915        C  0.67885576  0.47504028  0.92355377    -0.07600
C916        C  0.70292964  0.47525205  0.91070703     0.04400
C917        C  0.69527285  0.48990069  0.89487599    -0.14800
C918        C  0.66322881  0.50400768  0.89252542    -0.08100
C919        C  0.62260886  0.48906160  0.93517794     0.05400
C920        C  0.60606373  0.45916990  0.93929518    -0.09200
C921        C  0.58221176  0.45814400  0.95226049     0.00400
C922        C  0.57497729  0.48751432  0.96165765     0.00200
C923        C  0.59194698  0.51736441  0.95745970    -0.12800
C924        C  0.61542548  0.51834136  0.94438003     0.00700
C925        C  0.56488504  0.42686360  0.95509502     0.40000
C926        C  0.63203709  0.54965828  0.94067745     0.36600
C927        C  0.60636457  0.51740288  0.90216735     0.36400
C928        C  0.73550162  0.46122155  0.91447750     0.37100
N929        N  0.55095345  0.40176112  0.95723643    -0.43700
N930        N  0.64528943  0.57477576  0.93768312    -0.44100
N931        N  0.76155309  0.44992097  0.91754571    -0.41500
N932        N  0.57993899  0.52832755  0.89963350    -0.42900
H933        H  0.65666422  0.51503771  0.88050670     0.13200
H934        H  0.68497942  0.46409837  0.93566006     0.09700
H935        H  0.61140658  0.43666185  0.93212516     0.10800
H936        H  0.58698275  0.54018412  0.96443310     0.16600
C937        C  0.63801522  0.07272422  0.63373295    -0.01600
C938        C  0.63963759  0.10185030  0.62379506     0.07000
C939        C  0.66726058  0.10688385  0.61325712    -0.07600
C940        C  0.69327005  0.08332585  0.61240981     0.04400
C941        C  0.69179715  0.05367487  0.62229930    -0.14800
C942        C  0.66387772  0.04902074  0.63292962    -0.08100
C943        C  0.61289763  0.12762558  0.62425624     0.05400
C944        C  0.61102930  0.14920978  0.63809192    -0.09200
C945        C  0.58689087  0.17470497  0.63874913     0.00400
C946        C  0.56365232  0.17861957  0.62539220     0.00200
C947        C  0.56579250  0.15686361  0.61151219    -0.12800
C948        C  0.59015770  0.13158210  0.61085597     0.00700
C949        C  0.58767949  0.19723911  0.65294554     0.40000
C950        C  0.59119087  0.10966320  0.59642659     0.36600
C951        C  0.60967378  0.06630138  0.64455859     0.36400
C952        C  0.72109393  0.09098349  0.60145322     0.37100
N953        N  0.58845130  0.21537137  0.66429112    -0.43700
N954        N  0.59215138  0.09201893  0.58489562    -0.44100
N955        N  0.74320561  0.09743208  0.59260462    -0.41500
N956        N  0.58693673  0.06109967  0.65320996    -0.42900
H957        H  0.66187365  0.02657615  0.64055712     0.13200
H958        H  0.66853019  0.12951177  0.60570079     0.09700
H959        H  0.62891596  0.14644611  0.64828353     0.10800
H960        H  0.54819321  0.15935860  0.60118716     0.16600
C961        C  0.36954740  0.15476461  0.64568822    -0.01600
C962        C  0.36445834  0.13026238  0.63323077     0.07000
C963        C  0.38520815  0.12970706  0.61904978    -0.07600
C964        C  0.41096761  0.15322319  0.61709116     0.04400
C965        C  0.41646122  0.17778326  0.62964983    -0.14800
C966        C  0.39555945  0.17807261  0.64389285    -0.08100
C967        C  0.33767432  0.10479252  0.63467251     0.05400
C968        C  0.30498364  0.11329112  0.62983447    -0.09200
C969        C  0.27950376  0.08913347  0.62972303     0.00400
C970        C  0.28659239  0.05585661  0.63487202     0.00200
C971        C  0.31921643  0.04780961  0.64022775    -0.12800
C972        C  0.34479939  0.07181728  0.63990779     0.00700
C973        C  0.24644140  0.09932629  0.62429755     0.40000
C974        C  0.37840992  0.06188167  0.64450119     0.36600
C975        C  0.34841160  0.15641838  0.66038868     0.36400
C976        C  0.43174027  0.15080393  0.60228315     0.37100
N977        N  0.22003656  0.10753428  0.61983884    -0.43700
N978        N  0.40541970  0.05390447  0.64804862    -0.44100
N979        N  0.44823345  0.14870579  0.59036638    -0.41500
N980        N  0.33144806  0.15785961  0.67216176    -0.42900
H981        H  0.39918579  0.19689809  0.65355606     0.13200
H982        H  0.38121667  0.11075041  0.60947857     0.09700
H983        H  0.29959286  0.13869976  0.62576082     0.10800
H984        H  0.32509920  0.02235797  0.64404586     0.16600
C985        C  0.91011045  0.02364304  0.43742092    -0.01600
C986        C  0.87840649  0.00902676  0.44037175     0.07000
C987        C  0.87213635  0.99328570  0.45584174    -0.07600
C988        C  0.89682266  0.99228784  0.46836147     0.04400
C989        C  0.92814532  0.00771091  0.46551585    -0.14800
C990        C  0.93441916  0.02347931  0.45010556    -0.08100
C991        C  0.85196095  0.00867828  0.42724599     0.05400
C992        C  0.84144265  0.97774807  0.42077461    -0.09200
C993        C  0.81717381  0.97610331  0.40808929     0.00400
C994        C  0.80296398  0.00599241  0.40161070     0.00200
C995        C  0.81340227  0.03693416  0.40821853    -0.12800
C996        C  0.83740507  0.03848120  0.42104525     0.00700
C997        C  0.80827157  0.94343538  0.40164674     0.40000
C998        C  0.84590240  0.07081864  0.42800716     0.36600
C999        C  0.91882699  0.03741279  0.42122116     0.36400
C1000       C  0.88923663  0.97606336  0.48414970     0.37100
N1001       N  0.80120231  0.91719346  0.39654594    -0.43700
N1002       N  0.85266544  0.09674666  0.43358702    -0.44100
N1003       N  0.88324583  0.96307037  0.49680667    -0.41500
N1004       N  0.92584893  0.04823672  0.40819614    -0.42900
H1005       H  0.95873880  0.03480387  0.44780998     0.13200
H1006       H  0.84791716  0.98174578  0.45810750     0.09700
H1007       H  0.85260518  0.95479670  0.42552172     0.10800
H1008       H  0.80214349  0.05996640  0.40365847     0.16600
C1009       C  0.86986138  0.02383185  0.54442520    -0.01600
C1010       C  0.87076598  0.00412912  0.55916258     0.07000
C1011       C  0.89897267  0.98397989  0.56235246    -0.07600
C1012       C  0.92630665  0.98370049  0.55128976     0.04400
C1013       C  0.92570206  0.00408930  0.53679267    -0.14800
C1014       C  0.89740963  0.02401573  0.53354154    -0.08100
C1015       C  0.84275308  0.00412450  0.57147810     0.05400
C1016       C  0.82584633  0.97396113  0.57478769    -0.09200
C1017       C  0.80010224  0.97255878  0.58674684     0.00400
C1018       C  0.79088145  0.00179906  0.59561751     0.00200
C1019       C  0.80751727  0.03203047  0.59215417    -0.12800
C1020       C  0.83351394  0.03334613  0.58036030     0.00700
C1021       C  0.78286312  0.94111940  0.58928030     0.40000
C1022       C  0.85123332  0.06461525  0.57812149     0.36600
C1023       C  0.84063517  0.04329416  0.53993736     0.36400
C1024       C  0.95516074  0.96341601  0.55545896     0.37100
N1025       N  0.76899816  0.91593582  0.59127829    -0.43700
N1026       N  0.86540377  0.08968041  0.57629992    -0.44100
N1027       N  0.97829659  0.94721749  0.55885477    -0.41500
N1028       N  0.81727082  0.05894789  0.53630627    -0.42900
H1029       H  0.89653349  0.03923409  0.52224113     0.13200
H1030       H  0.89979060  0.96876635  0.57365121     0.09700
H1031       H  0.83278821  0.95145640  0.56797075     0.10800
H1032       H  0.80090595  0.05449024  0.59908501     0.16600
C1033       C  0.12197122  0.97969785  0.55168206    -0.01600
C1034       C  0.12002790  0.00193140  0.56538031     0.07000
C1035       C  0.09438547  0.02591530  0.56593766    -0.07600
C1036       C  0.07064738  0.02804858  0.55302130     0.04400
C1037       C  0.07226478  0.00555725  0.53930671    -0.14800
C1038       C  0.09796406  0.98142007  0.53886282    -0.08100
C1039       C  0.14477097  0.00092443  0.57920395     0.05400
C1040       C  0.17624157  0.01560530  0.57671244    -0.09200
C1041       C  0.20008212  0.01615353  0.58961356     0.00400
C1042       C  0.19234352  0.00193529  0.60547686     0.00200
C1043       C  0.16090121  0.98657978  0.60775097    -0.12800
C1044       C  0.13716610  0.98602972  0.59478003     0.00700
C1045       C  0.23256387  0.03040360  0.58592020     0.40000
C1046       C  0.10529883  0.96978620  0.59762203     0.36600
C1047       C  0.14828888  0.95489739  0.55061304     0.36400
C1048       C  0.04427313  0.05271435  0.55450432     0.37100
N1049       N  0.25860458  0.04176069  0.58293133    -0.43700
N1050       N  0.07977957  0.95668502  0.59983970    -0.44100
N1051       N  0.02314268  0.07248731  0.55568598    -0.41500
N1052       N  0.16947942  0.93511970  0.54977996    -0.42900
H1053       H  0.09951617  0.96410065  0.52838694     0.13200
H1054       H  0.09296026  0.04300151  0.57651855     0.09700
H1055       H  0.18214937  0.02668477  0.56461518     0.10800
H1056       H  0.15462251  0.97534107  0.61975099     0.16600
C1057       C  0.15092301  0.02329520  0.41306216    -0.01600
C1058       C  0.15593747  0.01210917  0.42964524     0.07000
C1059       C  0.18767288  0.00033989  0.43449717    -0.07600
C1060       C  0.21429942  0.99923248  0.42299325     0.04400
C1061       C  0.20925093  0.01018594  0.40625310    -0.14800
C1062       C  0.17743015  0.02237173  0.40158986    -0.08100
C1063       C  0.12819852  0.01214801  0.44203743     0.05400
C1064       C  0.10203290  0.98895489  0.44018419    -0.09200
C1065       C  0.07553480  0.98789747  0.45171679     0.00400
C1066       C  0.07513877  0.01024120  0.46550059     0.00200
C1067       C  0.10090891  0.03410485  0.46703245    -0.12800
C1068       C  0.12736097  0.03514878  0.45546118     0.00700
C1069       C  0.04836903  0.96472105  0.44867900     0.40000
C1070       C  0.15307560  0.06035105  0.45739585     0.36600
C1071       C  0.11887624  0.03621576  0.40758808     0.36400
C1072       C  0.24658101  0.98773760  0.42890161     0.37100
N1073       N  0.02647092  0.94632993  0.44618414    -0.43700
N1074       N  0.17367782  0.08058135  0.45886952    -0.44100
N1075       N  0.27243026  0.97853936  0.43368212    -0.41500
N1076       N  0.09321687  0.04659226  0.40318161    -0.42900
H1077       H  0.17299671  0.03085920  0.38882952     0.13200
H1078       H  0.19157274  0.99190916  0.44731357     0.09700
H1079       H  0.10232087  0.97169003  0.42965459     0.10800
H1080       H  0.10066838  0.05165259  0.47744073     0.16600
C1081       C  0.39054750  0.37240793  0.63923020    -0.01600
C1082       C  0.36189236  0.36943994  0.62891650     0.07000
C1083       C  0.35954485  0.34246412  0.61767369    -0.07600
C1084       C  0.38508706  0.31842148  0.61666762     0.04400
C1085       C  0.41372662  0.32126903  0.62705107    -0.14800
C1086       C  0.41594535  0.34820316  0.63835955    -0.08100
C1087       C  0.33458568  0.39475651  0.62921565     0.05400
C1088       C  0.32878382  0.41404109  0.61475862    -0.09200
C1089       C  0.30368860  0.43859136  0.61448995     0.00400
C1090       C  0.28403921  0.44431535  0.62896044     0.00200
C1091       C  0.28967179  0.42486557  0.64339436    -0.12800
C1092       C  0.31436953  0.39985962  0.64354485     0.00700
C1093       C  0.29955255  0.45846640  0.59945317     0.40000
C1094       C  0.31778251  0.37904145  0.65830163     0.36600
C1095       C  0.39496661  0.40065175  0.65036431     0.36400
C1096       C  0.38056378  0.29037503  0.60541580     0.37100
N1097       N  0.29626588  0.47442949  0.58741345    -0.43700
N1098       N  0.32044975  0.36226322  0.67009913    -0.44100
N1099       N  0.37685438  0.26784152  0.59644465    -0.41500
N1100       N  0.39848927  0.42331239  0.65927179    -0.42900
H1101       H  0.43792868  0.35072385  0.64630390     0.13200
H1102       H  0.33751863  0.34008445  0.60974706     0.09700
H1103       H  0.34422605  0.41013997  0.60370983     0.10800
H1104       H  0.27427065  0.42876584  0.65445253     0.16600
C1105       C  0.60750172  0.35575363  0.63570664    -0.01600
C1106       C  0.61119094  0.37583576  0.62128169     0.07000
C1107       C  0.58996066  0.37069872  0.60750107    -0.07600
C1108       C  0.56509772  0.34582720  0.60790363     0.04400
C1109       C  0.56122249  0.32544857  0.62239788    -0.14800
C1110       C  0.58266938  0.33093283  0.63619582    -0.08100
C1111       C  0.63729181  0.40222816  0.62039304     0.05400
C1112       C  0.66947198  0.39357953  0.61485259    -0.09200
C1113       C  0.69534568  0.41734278  0.61458673     0.00400
C1114       C  0.68912806  0.45062216  0.62002169     0.00200
C1115       C  0.65668057  0.45912939  0.62551597    -0.12800
C1116       C  0.63081666  0.43532516  0.62562728     0.00700
C1117       C  0.72825456  0.40629988  0.60939370     0.40000
C1118       C  0.59782452  0.44528162  0.63119541     0.36600
C1119       C  0.62903154  0.36025907  0.65013167     0.36400
C1120       C  0.54349813  0.34260566  0.59341996     0.37100
N1121       N  0.75460481  0.39738799  0.60522806    -0.43700
N1122       N  0.57132173  0.45321007  0.63560086    -0.44100
N1123       N  0.52620091  0.34007815  0.58180113    -0.41500
N1124       N  0.64638139  0.36399420  0.66164518    -0.42900
H1125       H  0.58029741  0.31559559  0.64738895     0.13200
H1126       H  0.59277345  0.38630110  0.59641912     0.09700
H1127       H  0.67447839  0.36799136  0.61096055     0.10800
H1128       H  0.65139822  0.48452189  0.62961385     0.16600
C1129       C  0.09307414  0.48788506  0.43630494    -0.01600
C1130       C  0.11984582  0.51093863  0.43688250     0.07000
C1131       C  0.12067269  0.53519991  0.44963315    -0.07600
C1132       C  0.09586396  0.53598304  0.46210201     0.04400
C1133       C  0.06968991  0.51204667  0.46187364    -0.14800
C1134       C  0.06852842  0.48838063  0.44883135    -0.08100
C1135       C  0.14753929  0.50960385  0.42447780     0.05400
C1136       C  0.15157223  0.53622015  0.41314156    -0.09200
C1137       C  0.17690284  0.53535567  0.40097298     0.00400
C1138       C  0.19859511  0.50742505  0.40004337     0.00200
C1139       C  0.19465120  0.48087026  0.41141296    -0.12800
C1140       C  0.16962333  0.48195023  0.42372826     0.00700
C1141       C  0.17935630  0.56276085  0.38916301     0.40000
C1142       C  0.16758909  0.45490766  0.43576517     0.36600
C1143       C  0.09008625  0.46377689  0.42285131     0.36400
C1144       C  0.09887069  0.56044502  0.47539721     0.37100
N1145       N  0.18134391  0.58461568  0.37963969    -0.43700
N1146       N  0.16584258  0.43333760  0.44546079    -0.44100
N1147       N  0.10133497  0.58000440  0.48606806    -0.41500
N1148       N  0.08777049  0.44448778  0.41205391    -0.42900
H1149       H  0.04819946  0.47032061  0.44835001     0.13200
H1150       H  0.14119469  0.55304138  0.45005346     0.09700
H1151       H  0.13460206  0.55746812  0.41367183     0.10800
H1152       H  0.21165208  0.45964277  0.41091277     0.16600
C1153       C  0.17410173  0.49166105  0.57313196    -0.01600
C1154       C  0.14099540  0.50277357  0.57572691     0.07000
C1155       C  0.13062572  0.51189840  0.59190313    -0.07600
C1156       C  0.15278640  0.50998211  0.60553187     0.04400
C1157       C  0.18613716  0.49881738  0.60299443    -0.14800
C1158       C  0.19631831  0.48967332  0.58671486    -0.08100
C1159       C  0.11640494  0.50380497  0.56180820     0.05400
C1160       C  0.10304957  0.47360172  0.55590966    -0.09200
C1161       C  0.07946220  0.47322163  0.54288967     0.00400
C1162       C  0.06846308  0.50385768  0.53558805     0.00200
C1163       C  0.08235510  0.53410367  0.54153284    -0.12800
C1164       C  0.10624016  0.53423310  0.55444803     0.00700
C1165       C  0.06725061  0.44086667  0.53748752     0.40000
C1166       C  0.12072608  0.56573183  0.55966803     0.36600
C1167       C  0.18586210  0.48271641  0.55657329     0.36400
C1168       C  0.14009181  0.51819099  0.62202121     0.37100
N1169       N  0.05769064  0.41485377  0.53316582    -0.43700
N1170       N  0.13258816  0.59088990  0.56381242    -0.44100
N1171       N  0.12987533  0.52470860  0.63523311    -0.41500
N1172       N  0.19516641  0.47566770  0.54326445    -0.42900
H1173       H  0.22183419  0.48132334  0.58453319     0.13200
H1174       H  0.10496570  0.52003751  0.59390353     0.09700
H1175       H  0.11113005  0.45017125  0.56155862     0.10800
H1176       H  0.07478422  0.55780735  0.53602672     0.16600
C1177       C  0.87742406  0.53001498  0.54963817    -0.01600
C1178       C  0.87253776  0.50129840  0.55962665     0.07000
C1179       C  0.89322503  0.47329277  0.55734554    -0.07600
C1180       C  0.91872107  0.47351622  0.54523141     0.04400
C1181       C  0.92333568  0.50210162  0.53487831    -0.14800
C1182       C  0.90256055  0.53020589  0.53737762    -0.08100
C1183       C  0.84573966  0.50006448  0.57246565     0.05400
C1184       C  0.81571450  0.48359025  0.56863601    -0.09200
C1185       C  0.78904606  0.48316883  0.58008316     0.00400
C1186       C  0.79234210  0.49950372  0.59585086     0.00200
C1187       C  0.82283676  0.51569967  0.59961897    -0.12800
C1188       C  0.84940018  0.51597505  0.58812892     0.00700
C1189       C  0.75845876  0.46672876  0.57490868     0.40000
C1190       C  0.88034121  0.53245530  0.59269255     0.36600
C1191       C  0.85671918  0.55945186  0.55171286     0.36400
C1192       C  0.94050015  0.44462304  0.54428152     0.37100
N1193       N  0.73403933  0.45347977  0.57068042    -0.43700
N1194       N  0.90520733  0.54556114  0.59632496    -0.44100
N1195       N  0.95805268  0.42152984  0.54361883    -0.41500
N1196       N  0.84012486  0.58301072  0.55346792    -0.42900
H1197       H  0.90572520  0.55237994  0.52964466     0.13200
H1198       H  0.88967291  0.45135903  0.56521687     0.09700
H1199       H  0.81294100  0.47149016  0.55650519     0.10800
H1200       H  0.82616318  0.52801437  0.61164919     0.16600
C1201       C  0.88198136  0.47665111  0.44549031    -0.01600
C1202       C  0.87737423  0.50395862  0.43455572     0.07000
C1203       C  0.89672787  0.53297122  0.43660382    -0.07600
C1204       C  0.92072469  0.53510293  0.44942951     0.04400
C1205       C  0.92518722  0.50785628  0.46063775    -0.14800
C1206       C  0.90563629  0.47879330  0.45841378    -0.08100
C1207       C  0.85213938  0.50281709  0.42098547     0.05400
C1208       C  0.81983271  0.51480580  0.42429484    -0.09200
C1209       C  0.79512394  0.51436411  0.41180713     0.00400
C1210       C  0.80282588  0.50196296  0.39556609     0.00200
C1211       C  0.83516908  0.48925197  0.39247087    -0.12800
C1212       C  0.85977511  0.48967961  0.40504008     0.00700
C1213       C  0.76192527  0.52580248  0.41631351     0.40000
C1214       C  0.89278574  0.47680539  0.40127971     0.36600
C1215       C  0.86282181  0.44615499  0.44358600     0.36400
C1216       C  0.94131117  0.56484727  0.45020845     0.37100
N1217       N  0.73535834  0.53495569  0.41997134    -0.43700
N1218       N  0.91926126  0.46649859  0.39830038    -0.44100
N1219       N  0.95788661  0.58865202  0.45071047    -0.41500
N1220       N  0.84752646  0.42169764  0.44199617    -0.42900
H1221       H  0.90876491  0.45758679  0.46681129     0.13200
H1222       H  0.89329670  0.55384259  0.42801979     0.09700
H1223       H  0.81395384  0.52431867  0.43662954     0.10800
H1224       H  0.84144554  0.47969791  0.38025146     0.16600
C1225       C  0.26448703  0.63682983  0.69801717    -0.01600
C1226       C  0.23411218  0.62264169  0.69249739     0.07000
C1227       C  0.20380930  0.63384705  0.69938821    -0.07600
C1228       C  0.20332327  0.65882112  0.71175378     0.04400
C1229       C  0.23390665  0.67312638  0.71748272    -0.14800
C1230       C  0.26419350  0.66172117  0.71038335    -0.08100
C1231       C  0.23346020  0.59578733  0.67965239     0.05400
C1232       C  0.24645578  0.56414806  0.68372019    -0.09200
C1233       C  0.24644870  0.53806695  0.67194106     0.00400
C1234       C  0.23300679  0.54350781  0.65567608     0.00200
C1235       C  0.21970708  0.57529926  0.65177290    -0.12800
C1236       C  0.22002201  0.60134296  0.66353128     0.00700
C1237       C  0.25967711  0.50598332  0.67714787     0.40000
C1238       C  0.20754879  0.63390021  0.65858351     0.36600
C1239       C  0.29622258  0.62679510  0.69086646     0.36400
C1240       C  0.17096951  0.66884382  0.71819527     0.37100
N1241       N  0.27038762  0.48037960  0.68142851    -0.43700
N1242       N  0.19770592  0.66002804  0.65459070    -0.44100
N1243       N  0.14491927  0.67670493  0.72326866    -0.41500
N1244       N  0.32164089  0.61881297  0.68509874    -0.42900
H1245       H  0.28790973  0.67231582  0.71442063     0.13200
H1246       H  0.18041819  0.62283857  0.69512198     0.09700
H1247       H  0.25657426  0.55983887  0.69619737     0.10800
H1248       H  0.20966922  0.58017953  0.63933928     0.16600
C1249       C  0.26381051  0.62195400  0.80087362    -0.01600
C1250       C  0.24543493  0.62525308  0.81592614     0.07000
C1251       C  0.22537342  0.65375940  0.81842789    -0.07600
C1252       C  0.22298293  0.67858253  0.80605225     0.04400
C1253       C  0.24096601  0.67495249  0.79090452    -0.14800
C1254       C  0.26155251  0.64682231  0.78856263    -0.08100
C1255       C  0.24679015  0.59915313  0.82915547     0.05400
C1256       C  0.27764893  0.59164368  0.83673728    -0.09200
C1257       C  0.28027394  0.56616578  0.84875647     0.00400
C1258       C  0.25128926  0.54805464  0.85363725     0.00200
C1259       C  0.22036397  0.55598634  0.84608986    -0.12800
C1260       C  0.21792828  0.58117614  0.83394683     0.00700
C1261       C  0.31328679  0.55836148  0.85516108     0.40000
C1262       C  0.18570744  0.58745973  0.82624392     0.36600
C1263       C  0.28456426  0.59297734  0.79761421     0.36400
C1264       C  0.20340712  0.70826163  0.80953824     0.37100
N1265       N  0.33983411  0.55215277  0.86018440    -0.43700
N1266       N  0.15989561  0.59254347  0.82007895    -0.44100
N1267       N  0.18792494  0.73216146  0.81236436    -0.41500
N1268       N  0.30128066  0.56980875  0.79503864    -0.42900
H1269       H  0.27557876  0.64406361  0.77696553     0.13200
H1270       H  0.21177585  0.65669057  0.83013715     0.09700
H1271       H  0.29989643  0.60545352  0.83303145     0.10800
H1272       H  0.19786585  0.54246298  0.84966084     0.16600
C1273       C  0.22235616  0.87172881  0.80168018    -0.01600
C1274       C  0.24248478  0.86778895  0.81613336     0.07000
C1275       C  0.26243564  0.83898174  0.81785287    -0.07600
C1276       C  0.26269666  0.81428986  0.80536794     0.04400
C1277       C  0.24281792  0.81843864  0.79083651    -0.14800
C1278       C  0.22262690  0.84706868  0.78920183    -0.08100
C1279       C  0.24261838  0.89315194  0.82972645     0.05400
C1280       C  0.21290512  0.89928830  0.83866772    -0.09200
C1281       C  0.21195185  0.92330284  0.85147723     0.00400
C1282       C  0.24121782  0.94150209  0.85552051     0.00200
C1283       C  0.27103670  0.93488836  0.84676913    -0.12800
C1284       C  0.27194890  0.91103777  0.83392163     0.00700
C1285       C  0.18110287  0.92777959  0.86071075     0.40000
C1286       C  0.30299576  0.90606147  0.82491581     0.36600
C1287       C  0.20160444  0.90103991  0.79927422     0.36400
C1288       C  0.28188646  0.78408138  0.80822802     0.37100
N1289       N  0.15641817  0.93123283  0.86816075    -0.43700
N1290       N  0.32790169  0.90208641  0.81772133    -0.44100
N1291       N  0.29700897  0.75974370  0.81059028    -0.41500
N1292       N  0.18489061  0.92447841  0.79737436    -0.42900
H1293       H  0.20721563  0.85028035  0.77807217     0.13200
H1294       H  0.27740020  0.83556986  0.82911661     0.09700
H1295       H  0.19046407  0.88511136  0.83566991     0.10800
H1296       H  0.29353033  0.94896023  0.84971350     0.16600
C1297       C  0.22101997  0.84122631  0.69083005    -0.01600
C1298       C  0.23992551  0.87081064  0.69327388     0.07000
C1299       C  0.25813145  0.87484038  0.70824862    -0.07600
C1300       C  0.25808581  0.84983278  0.72057914     0.04400
C1301       C  0.23895512  0.82047757  0.71816264    -0.14800
C1302       C  0.22033254  0.81656660  0.70335411    -0.08100
C1303       C  0.24009435  0.89829736  0.68064578     0.05400
C1304       C  0.20948255  0.91296630  0.67594287    -0.09200
C1305       C  0.20833906  0.93887722  0.66410581     0.00400
C1306       C  0.23838609  0.95109113  0.65698738     0.00200
C1307       C  0.26909468  0.93690279  0.66192713    -0.12800
C1308       C  0.27016185  0.91048350  0.67352230     0.00700
C1309       C  0.17610905  0.95325347  0.65997946     0.40000
C1310       C  0.30226222  0.89565063  0.67751258     0.36600
C1311       C  0.20301370  0.83514649  0.67537656     0.36400
C1312       C  0.27683755  0.85534817  0.73587756     0.37100
N1313       N  0.15024603  0.96473051  0.65670066    -0.43700
N1314       N  0.32796697  0.88374291  0.68072298    -0.44100
N1315       N  0.29176772  0.85961079  0.74817151    -0.41500
N1316       N  0.18864749  0.83032897  0.66296847    -0.42900
H1317       H  0.20588843  0.79384100  0.70140502     0.13200
H1318       H  0.27219182  0.89773847  0.71036516     0.09700
H1319       H  0.18635788  0.90421788  0.68162973     0.10800
H1320       H  0.29226812  0.94599203  0.65642686     0.16600
C1321       C  0.72259956  0.65367619  0.80902181    -0.01600
C1322       C  0.74244337  0.62457039  0.80698598     0.07000
C1323       C  0.76246569  0.62156084  0.79252513    -0.07600
C1324       C  0.76324820  0.64698677  0.78035693     0.04400
C1325       C  0.74279408  0.67565176  0.78223867    -0.14800
C1326       C  0.72248991  0.67855228  0.79656453    -0.08100
C1327       C  0.74234532  0.59692377  0.81966499     0.05400
C1328       C  0.71179355  0.58161494  0.82405898    -0.09200
C1329       C  0.71060016  0.55567568  0.83596947     0.00400
C1330       C  0.74049225  0.54431002  0.84362153     0.00200
C1331       C  0.77107423  0.55916244  0.83898804    -0.12800
C1332       C  0.77223861  0.58529255  0.82723815     0.00700
C1333       C  0.67865157  0.54013592  0.83947608     0.40000
C1334       C  0.80439083  0.60019221  0.82348310     0.36600
C1335       C  0.70310980  0.65919764  0.82405780     0.36400
C1336       C  0.78439378  0.64254267  0.76579431     0.37100
N1337       N  0.65302956  0.52762527  0.84220017    -0.43700
N1338       N  0.83020375  0.61198609  0.82043157    -0.44100
N1339       N  0.80139194  0.63909003  0.75413732    -0.41500
N1340       N  0.68761136  0.66364417  0.83614512    -0.42900
H1341       H  0.70705450  0.70072266  0.79821145     0.13200
H1342       H  0.77745791  0.59915695  0.79069412     0.09700
H1343       H  0.68878817  0.58975433  0.81801655     0.10800
H1344       H  0.79420872  0.55065156  0.84478384     0.16600
C1345       C  0.77106222  0.63799427  0.69233821    -0.01600
C1346       C  0.74189478  0.62924532  0.68336683     0.07000
C1347       C  0.71158076  0.64536216  0.68712251    -0.07600
C1348       C  0.70990304  0.67008325  0.69960649     0.04400
C1349       C  0.73911776  0.67883639  0.70880110    -0.14800
C1350       C  0.76949534  0.66255327  0.70487851    -0.08100
C1351       C  0.74213312  0.60265781  0.67033215     0.05400
C1352       C  0.72627820  0.57210301  0.67381711    -0.09200
C1353       C  0.72568437  0.54621246  0.66193114     0.00400
C1354       C  0.74063584  0.55097859  0.64594771     0.00200
C1355       C  0.75674146  0.58170584  0.64259338    -0.12800
C1356       C  0.75764095  0.60737486  0.65460745     0.00700
C1357       C  0.71092197  0.51465877  0.66688678     0.40000
C1358       C  0.77422853  0.63849592  0.65047132     0.36600
C1359       C  0.80271525  0.62157182  0.68914540     0.36400
C1360       C  0.67796747  0.68629775  0.70232943     0.37100
N1361       N  0.69924468  0.48934055  0.67093116    -0.43700
N1362       N  0.78764313  0.66340341  0.64722269    -0.44100
N1363       N  0.65230473  0.69921688  0.70443425    -0.41500
N1364       N  0.82809683  0.60845732  0.68656222    -0.42900
H1365       H  0.79217134  0.66867384  0.71175932     0.13200
H1366       H  0.68913204  0.63867222  0.68017204     0.09700
H1367       H  0.71474385  0.56831462  0.68601662     0.10800
H1368       H  0.76842689  0.58590913  0.63047391     0.16600
C1369       C  0.76278022  0.87555698  0.69895152    -0.01600
C1370       C  0.73818341  0.87678100  0.68624254     0.07000
C1371       C  0.71275754  0.85248406  0.68596765    -0.07600
C1372       C  0.71177393  0.82687813  0.69802883     0.04400
C1373       C  0.73694726  0.82509116  0.71054798    -0.14800
C1374       C  0.76220887  0.84966984  0.71083583    -0.08100
C1375       C  0.73904218  0.90277870  0.67289691     0.05400
C1376       C  0.76537431  0.90248043  0.66125774    -0.09200
C1377       C  0.76722450  0.92642178  0.64839364     0.00400
C1378       C  0.74192878  0.95140575  0.64689397     0.00200
C1379       C  0.71564777  0.95148719  0.65876980    -0.12800
C1380       C  0.71410848  0.92761964  0.67165289     0.00700
C1381       C  0.79577740  0.92459502  0.63727032     0.40000
C1382       C  0.68718739  0.92962012  0.68374530     0.36600
C1383       C  0.78817779  0.90122227  0.70033262     0.36400
C1384       C  0.68536826  0.80220241  0.69684874     0.37100
N1385       N  0.81881898  0.92294955  0.62846352    -0.43700
N1386       N  0.66570742  0.93121586  0.69348777    -0.44100
N1387       N  0.66413585  0.78250431  0.69589080    -0.41500
N1388       N  0.80833682  0.92197547  0.70147507    -0.42900
H1389       H  0.78130472  0.84897291  0.72054808     0.13200
H1390       H  0.69383792  0.85335761  0.67617131     0.09700
H1391       H  0.78465838  0.88336661  0.66226941     0.10800
H1392       H  0.69606665  0.97031321  0.65810497     0.16600
C1393       C  0.70962227  0.86453039  0.79979994    -0.01600
C1394       C  0.73957053  0.87611690  0.80716353     0.07000
C1395       C  0.77009765  0.86134697  0.80260213    -0.07600
C1396       C  0.77132329  0.83540285  0.79078476     0.04400
C1397       C  0.74129095  0.82371014  0.78317998    -0.14800
C1398       C  0.71067573  0.83863579  0.78793522    -0.08100
C1399       C  0.73973618  0.90298219  0.82003028     0.05400
C1400       C  0.72523579  0.89661131  0.83572163    -0.09200
C1401       C  0.72644919  0.92052412  0.84857182     0.00400
C1402       C  0.74290520  0.95164587  0.84584303     0.00200
C1403       C  0.75712268  0.95793659  0.82997111    -0.12800
C1404       C  0.75541977  0.93408242  0.81709788     0.00700
C1405       C  0.71125522  0.91172158  0.86444859     0.40000
C1406       C  0.76906460  0.94237352  0.80081480     0.36600
C1407       C  0.67762404  0.87935559  0.80395194     0.36400
C1408       C  0.80384911  0.82134445  0.78700976     0.37100
N1409       N  0.69886156  0.90454423  0.87709884    -0.43700
N1410       N  0.77978006  0.94901349  0.78771835    -0.44100
N1411       N  0.83001571  0.81021792  0.78406441    -0.41500
N1412       N  0.65199288  0.89125629  0.80728281    -0.42900
H1413       H  0.68736250  0.83032916  0.78228243     0.13200
H1414       H  0.79311945  0.87002998  0.80844026     0.09700
H1415       H  0.71329319  0.87258491  0.83799640     0.10800
H1416       H  0.76918191  0.98179522  0.82747346     0.16600
loop_ 
_geom_bond_atom_site_label_1 
_geom_bond_atom_site_label_2 
_geom_bond_distance 
_geom_bond_site_symmetry_2 
_ccdc_geom_bond_type 
O1           Cu9   2.009       .  S
O1           C11   1.278       .  A
O2           Cu9   2.012       .  S
O2           C12   1.278       .  A
O3           Cu9   2.009       .  S
O3           C13   1.279       .  A
O4           Cu9   2.013       .  S
O4           C14   1.278       .  A
O5          Cu10   2.004       .  S
O5           C14   1.278       .  A
O6          Cu10   2.003       .  S
O6           C13   1.277       .  A
O7          Cu10   2.012       .  S
O7           C12   1.278       .  A
O8          Cu10   2.009       .  S
O8           C11   1.278       .  A
Cu9         Cu10   2.368       .  S
C11        C1373   1.483       .  S
C12        C1325   1.480       .  S
C13        C1397   1.491       .  S
C14        C1349   1.491       .  S
O15         Cu23   2.007       .  S
O15          C25   1.278       .  A
O16         Cu23   2.009       .  S
O16          C26   1.280       .  A
O17         Cu23   1.995       .  S
O17          C27   1.276       .  A
O18         Cu23   1.988       .  S
O18          C28   1.275       .  A
O19         Cu24   2.011       .  S
O19          C28   1.278       .  A
O20         Cu24   2.009       .  S
O20          C27   1.278       .  A
O21         Cu24   2.001       .  S
O21          C26   1.276       .  A
O22         Cu24   1.997       .  S
O22          C25   1.276       .  A
Cu23        Cu24   2.372       .  S
C25        C1277   1.471       .  S
C26        C1229   1.491       .  S
C27        C1301   1.471       .  S
C28        C1253   1.470       .  S
O29         Cu37   2.008       .  S
O29          C39   1.278       .  A
O30         Cu37   2.006   1_455  S
O30          C40   1.277       .  A
O31         Cu37   2.017       .  S
O31          C41   1.279       .  A
O32         Cu37   2.015   1_455  S
O32          C42   1.280       .  A
O33         Cu38   1.994   1_455  S
O33          C42   1.275       .  A
O34         Cu38   1.992       .  S
O34          C41   1.276       .  A
O35         Cu38   2.004   1_455  S
O35          C40   1.278       .  A
O36         Cu38   2.006       .  S
O36          C39   1.277       .  A
Cu37        Cu38   2.368       .  S
C39        C1181   1.487       .  S
C40        C1133   1.478       .  S
C41        C1205   1.484       .  S
C42        C1162   1.491       .  S
C43        C1114   1.487       .  S
C43          N44   1.357       .  A
C43          N48   1.359       .  A
N44          C45   1.357       .  A
C45        C1186   1.490       .  S
C45          N46   1.360       .  A
N46          C47   1.360       .  A
C47        C1354   1.490       .  S
C47          N48   1.360       .  A
C49        C1090   1.476       .  S
C49          N50   1.358       .  A
C49          N54   1.358       .  A
N50          C51   1.358       .  A
C51        C1157   1.483       .  S
C51          N52   1.357       .  A
N52          C53   1.358       .  A
C53        C1234   1.487       .  S
C53          N54   1.359       .  A
O55         Cu63   2.004       .  S
O55          C65   1.277   1_565  A
O56         Cu63   2.003   1_655  S
O56          C66   1.277   1_565  A
O57         Cu63   2.012       .  S
O57          C67   1.279   1_565  A
O58         Cu63   2.009   1_655  S
O58          C68   1.278   1_565  A
O59         Cu64   2.006   1_655  S
O59          C68   1.278       .  A
O60         Cu64   2.007       .  S
O60          C67   1.277       .  A
O61         Cu64   2.004   1_655  S
O61          C66   1.277       .  A
O62         Cu64   2.006       .  S
O62          C65   1.278       .  A
Cu63        Cu64   2.373   1_565  S
C65        C1037   1.479       .  S
C66         C989   1.469       .  S
C67        C1066   1.481       .  S
C68        C1013   1.475       .  S
C69        C1042   1.484       .  S
C69          N70   1.356       .  A
C69          N74   1.358   1_545  A
N70          C71   1.356       .  A
C71         C970   1.481       .  S
C71          N72   1.359       .  A
N72          C73   1.359   1_545  A
C73        C1306   1.477       .  S
C73          N74   1.359       .  A
C75         C941   1.494       .  S
C75          N76   1.358       .  A
C75          N80   1.360       .  A
N76          C77   1.357       .  A
C77        C1018   1.478       .  S
C77          N78   1.357   1_545  A
N78          C79   1.358       .  A
C79        C1378   1.497       .  S
C79          N80   1.360   1_565  A
O81         Cu89   2.006   1_556  S
O81          C91   1.276       .  A
O82         Cu89   2.004       .  S
O82          C92   1.278       .  A
O83         Cu89   2.015       .  S
O83          C93   1.279       .  A
O84         Cu89   2.020   1_556  S
O84          C94   1.279       .  A
O85         Cu90   2.008       .  S
O85          C94   1.279       .  A
O86         Cu90   2.013   1_554  S
O86          C93   1.279       .  A
O87         Cu90   2.000   1_554  S
O87          C92   1.276       .  A
O88         Cu90   1.994       .  S
O88          C91   1.276       .  A
Cu89        Cu90   2.370   1_554  S
C91         C893   1.466       .  S
C92         C874   1.484       .  S
C93         C845   1.488       .  S
C94         C922   1.495       .  S
C95         C821   1.486       .  S
C95          N96   1.357       .  A
C95         N100   1.357       .  A
N96          C97   1.358       .  A
C97         C917   1.494       .  S
C97          N98   1.363       .  A
N98          C99   1.362       .  A
C99        C1330   1.483       .  S
C99         N100   1.358       .  A
C101        C797   1.482       .  S
C101        N102   1.357       .  A
C101        N106   1.357       .  A
N102        C103   1.358       .  A
C103       C1258   1.483       .  S
C103        N104   1.356       .  A
N104        C105   1.356       .  A
C105        C898   1.476       .  S
C105        N106   1.358       .  A
O107       Cu115   2.001       .  S
O107        C117   1.277       .  A
O108       Cu115   2.013       .  S
O108        C118   1.278       .  A
O109       Cu115   2.011       .  S
O109        C119   1.278       .  A
O110       Cu115   2.013       .  S
O110        C120   1.278       .  A
O111       Cu116   2.005       .  S
O111        C120   1.278       .  A
O112       Cu116   2.007       .  S
O112        C119   1.277       .  A
O113       Cu116   2.007       .  S
O113        C118   1.278       .  A
O114       Cu116   2.011       .  S
O114        C117   1.278       .  A
Cu115      Cu116   2.370       .  S
C117        C701   1.477       .  S
C118        C778   1.481       .  S
C119        C749   1.474       .  S
C120        C725   1.493       .  S
O121       Cu129   2.000       .  S
O121        C131   1.276       .  A
O122       Cu129   1.995   1_554  S
O122        C132   1.275       .  A
O123       Cu129   2.023   1_554  S
O123        C133   1.280       .  A
O124       Cu129   2.018       .  S
O124        C134   1.280       .  A
O125       Cu130   1.998       .  S
O125        C134   1.276   1_545  A
O126       Cu130   1.995   1_554  S
O126        C133   1.276   1_545  A
O127       Cu130   2.003   1_554  S
O127        C132   1.277   1_545  A
O128       Cu130   2.006       .  S
O128        C131   1.278   1_545  A
Cu129      Cu130   2.370   1_565  S
C131        C677   1.480       .  S
C132        C605   1.468       .  S
C133        C629   1.486       .  S
C134        C653   1.493   1_565  S
C135       C1282   1.474       .  S
C135        N136   1.356       .  A
C135        N140   1.354       .  A
N136        C137   1.360   1_565  A
C137        C586   1.496       .  S
C137        N138   1.361       .  A
N138        C139   1.361   1_545  A
C139        C682   1.480       .  S
C139        N140   1.355       .  A
C141        C658   1.485       .  S
C141        N142   1.355   1_545  A
C141        N146   1.358       .  A
N142        C143   1.355       .  A
C143       C1402   1.489       .  S
C143        N144   1.361   1_565  A
N144        C145   1.361       .  A
C145        C557   1.486       .  S
C145        N146   1.361       .  A
O147       Cu155   1.999       .  S
O147        C157   1.277       .  A
O148       Cu155   2.006       .  S
O148        C158   1.277       .  A
O149       Cu155   2.016       .  S
O149        C159   1.279       .  A
O150       Cu155   2.015       .  S
O150        C160   1.280       .  A
O151       Cu156   2.012       .  S
O151        C160   1.278       .  A
O152       Cu156   2.018       .  S
O152        C159   1.279       .  A
O153       Cu156   2.008       .  S
O153        C158   1.278       .  A
O154       Cu156   2.011       .  S
O154        C157   1.278       .  A
Cu155      Cu156   2.369       .  S
C157        C533   1.480       .  S
C158        C461   1.487       .  S
C159        C485   1.485       .  S
C160        C514   1.492       .  S
C161        C634   1.500       .  S
C161        N162   1.360       .  A
C161        N166   1.360   1_565  A
N162        C163   1.358       .  A
C163        C442   1.496       .  S
C163        N164   1.361       .  A
N164        C165   1.360   1_565  A
C165        C490   1.483       .  S
C165        N166   1.360       .  A
C167        C413   1.486       .  S
C167        N168   1.359   1_565  A
C167        N172   1.355       .  A
N168        C169   1.358       .  A
C169        C730   1.483       .  S
C169        N170   1.359       .  A
N170        C171   1.358       .  A
C171        C610   1.472       .  S
C171        N172   1.355   1_545  A
C173        C389   1.491       .  S
C173        N174   1.358       .  A
C173        N178   1.358       .  A
N174        C175   1.356       .  A
C175        C706   1.470       .  S
C175        N176   1.356       .  A
N176        C177   1.358       .  A
C177        C869   1.485       .  S
C177        N178   1.357       .  A
C179        C370   1.477       .  S
C179        N180   1.359       .  A
C179        N184   1.359       .  A
N180        C181   1.356       .  A
C181        C850   1.470       .  S
C181        N182   1.356       .  A
N182        C183   1.358       .  A
C183        C466   1.496       .  S
C183        N184   1.361       .  A
C185        C341   1.489       .  S
C185        N186   1.362       .  A
C185        N190   1.359   1_565  A
N186        C187   1.360   1_565  A
C187       C1061   1.486       .  S
C187        N188   1.357       .  A
N188        C189   1.354       .  A
C189        C538   1.477       .  S
C189        N190   1.357       .  A
C191        C322   1.482       .  S
C191        N192   1.354       .  A
C191        N196   1.359   1_565  A
N192        C193   1.355   1_565  A
C193        C994   1.482       .  S
C193        N194   1.360       .  A
N194        C195   1.361       .  A
C195        C773   1.500       .  S
C195        N196   1.363       .  A
C197        C293   1.487       .  S
C197        N198   1.359       .  A
C197        N202   1.354       .  A
N198        C199   1.361       .  A
C199        C754   1.484       .  S
C199        N200   1.360       .  A
N200        C201   1.359       .  A
C201       C1210   1.483       .  S
C201        N202   1.355       .  A
C203        C269   1.496       .  S
C203        N204   1.361       .  A
C203        N208   1.356       .  A
N204        C205   1.361       .  A
C205        C509   1.487       .  S
C205        N206   1.360       .  A
N206        C207   1.357       .  A
C207       C1138   1.472       .  S
C207        N208   1.354       .  A
O209       Cu217   1.999       .  S
O209        C219   1.277       .  A
O210       Cu217   1.989   1_655  S
O210        C220   1.276       .  A
O211       Cu217   2.009       .  S
O211        C221   1.278       .  A
O212       Cu217   2.006   1_655  S
O212        C222   1.278       .  A
O213       Cu218   2.001   1_655  S
O213        C222   1.277       .  A
O214       Cu218   2.013       .  S
O214        C221   1.278       .  A
O215       Cu218   2.010   1_655  S
O215        C220   1.278       .  A
O216       Cu218   2.013       .  S
O216        C219   1.278       .  A
Cu217      Cu218   2.370       .  S
C219        C365   1.478       .  S
C220        C418   1.488       .  S
C221        C437   1.478       .  S
C222        C394   1.480       .  S
O223       Cu231   2.007       .  S
O223        C233   1.279       .  A
O224       Cu231   2.011       .  S
O224        C234   1.277       .  A
O225       Cu231   2.011       .  S
O225        C235   1.279       .  A
O226       Cu231   2.003       .  S
O226        C236   1.277       .  A
O227       Cu232   2.010       .  S
O227        C236   1.279       .  A
O228       Cu232   2.003       .  S
O228        C235   1.277       .  A
O229       Cu232   2.006       .  S
O229        C234   1.277       .  A
O230       Cu232   2.002       .  S
O230        C233   1.277       .  A
Cu231      Cu232   2.369       .  S
C233        C274   1.485       .  S
C234        C317   1.474       .  S
C235        C346   1.486       .  S
C236        C298   1.489       .  S
O237       Cu245   2.004       .  S
O237        C247   1.277       .  A
O238       Cu245   2.004       .  S
O238        C248   1.277       .  A
O239       Cu245   2.010       .  S
O239        C249   1.279       .  A
O240       Cu245   2.011       .  S
O240        C250   1.279       .  A
O241       Cu246   2.004       .  S
O241        C250   1.277       .  A
O242       Cu246   2.011       .  S
O242        C249   1.278       .  A
O243       Cu246   2.012       .  S
O243        C248   1.279       .  A
O244       Cu246   2.011       .  S
O244        C247   1.278       .  A
Cu245      Cu246   2.369       .  S
C247       C1085   1.479       .  S
C248        C946   1.487       .  S
C249       C1109   1.491       .  S
C250        C965   1.484       .  S
O251       Cu259   2.015       .  S
O251        C261   1.279       .  A
O252       Cu259   2.013   1_655  S
O252        C262   1.279       .  A
O253       Cu259   2.001       .  S
O253        C263   1.276       .  A
O254       Cu259   2.005   1_655  S
O254        C264   1.277       .  A
O255       Cu260   2.012       .  S
O255        C264   1.279       .  A
O256       Cu260   2.011   1_455  S
O256        C263   1.279       .  A
O257       Cu260   2.000       .  S
O257        C262   1.277       .  A
O258       Cu260   1.998   1_455  S
O258        C261   1.276       .  A
Cu259      Cu260   2.370   1_455  S
C261        C581   1.480       .  S
C262        C826   1.486       .  S
C263        C802   1.487       .  S
C264        C562   1.481       .  S
C265        C266   1.406       .  A
C265        C270   1.399       .  A
C265        C279   1.444       .  S
C266        C271   1.480       .  S
C266        C267   1.398       .  A
C267        C268   1.400       .  A
C267        H286   1.085       .  S
C268        C269   1.424       .  A
C268        C280   1.444       .  S
C269        C270   1.410       .  A
C270        H285   1.084       .  S
C271        C272   1.400       .  A
C271        C276   1.408       .  A
C272        C273   1.400       .  A
C272        H287   1.085       .  S
C273        C274   1.418       .  A
C273        C277   1.444       .  S
C274        C275   1.407       .  A
C275        C276   1.399       .  A
C275        H288   1.084       .  S
C276        C278   1.444       .  S
C277        N281   1.157       .  T
C278        N282   1.157       .  T
C279        N284   1.157       .  T
C280        N283   1.158       .  T
C289        C290   1.408       .  A
C289        C294   1.400       .  A
C289        C303   1.444       .  S
C290        C295   1.480       .  S
C290        C291   1.399       .  A
C291        C292   1.398       .  A
C291        H310   1.085       .  S
C292        C293   1.420       .  A
C292        C304   1.445       .  S
C293        C294   1.408       .  A
C294        H309   1.084       .  S
C295        C296   1.400       .  A
C295        C300   1.407       .  A
C296        C297   1.400       .  A
C296        H311   1.085       .  S
C297        C298   1.420       .  A
C297        C301   1.444       .  S
C298        C299   1.408       .  A
C299        C300   1.399       .  A
C299        H312   1.084       .  S
C300        C302   1.444       .  S
C301        N305   1.157       .  T
C302        N306   1.157       .  T
C303        N308   1.157       .  T
C304        N307   1.158       .  T
C313        C314   1.412       .  A
C313        C318   1.399       .  A
C313        C327   1.444       .  S
C314        C319   1.488       .  S
C314        C315   1.405       .  A
C315        C316   1.402       .  A
C315        H334   1.085       .  S
C316        C317   1.411       .  A
C316        C328   1.444       .  S
C317        C318   1.402       .  A
C318        H333   1.085       .  S
C319        C320   1.402       .  A
C319        C324   1.413       .  A
C320        C321   1.400       .  A
C320        H335   1.085       .  S
C321        C322   1.415       .  A
C321        C325   1.445       .  S
C322        C323   1.404       .  A
C323        C324   1.401       .  A
C323        H336   1.085       .  S
C324        C326   1.444       .  S
C325        N329   1.157       .  T
C326        N330   1.157       .  T
C327        N332   1.157       .  T
C328        N331   1.157       .  T
C337        C338   1.407       .  A
C337        C342   1.401       .  A
C337        C351   1.444       .  S
C338        C343   1.480       .  S
C338        C339   1.399       .  A
C339        C340   1.401       .  A
C339        H358   1.085       .  S
C340        C341   1.419       .  A
C340        C352   1.444       .  S
C341        C342   1.408       .  A
C342        H357   1.084       .  S
C343        C344   1.399       .  A
C343        C348   1.408       .  A
C344        C345   1.400       .  A
C344        H359   1.085       .  S
C345        C346   1.417       .  A
C345        C349   1.444       .  S
C346        C347   1.407       .  A
C347        C348   1.401       .  A
C347        H360   1.084       .  S
C348        C350   1.443       .  S
C349        N353   1.157       .  T
C350        N354   1.157       .  T
C351        N356   1.157       .  T
C352        N355   1.157   1_565  T
C361        C362   1.412       .  A
C361        C366   1.401       .  A
C361        C375   1.444       .  S
C362        C367   1.484       .  S
C362        C363   1.402       .  A
C363        C364   1.398       .  A
C363        H382   1.085       .  S
C364        C365   1.413       .  A
C364        C376   1.444       .  S
C365        C366   1.405       .  A
C366        H381   1.085       .  S
C367        C368   1.403       .  A
C367        C372   1.411       .  A
C368        C369   1.400       .  A
C368        H383   1.085       .  S
C369        C370   1.412       .  A
C369        C373   1.444       .  S
C370        C371   1.403       .  A
C371        C372   1.400       .  A
C371        H384   1.085       .  S
C372        C374   1.444       .  S
C373        N377   1.157       .  T
C374        N378   1.157       .  T
C375        N380   1.157       .  T
C376        N379   1.157       .  T
C385        C386   1.405       .  A
C385        C390   1.399       .  A
C385        C399   1.444       .  S
C386        C391   1.475       .  S
C386        C387   1.398       .  A
C387        C388   1.398       .  A
C387        H406   1.085       .  S
C388        C389   1.420       .  A
C388        C400   1.443       .  S
C389        C390   1.411       .  A
C390        H405   1.084       .  S
C391        C392   1.399       .  A
C391        C396   1.407       .  A
C392        C393   1.399       .  A
C392        H407   1.085       .  S
C393        C394   1.417       .  A
C393        C397   1.445       .  S
C394        C395   1.405       .  A
C395        C396   1.398       .  A
C395        H408   1.085       .  S
C396        C398   1.444       .  S
C397        N401   1.157       .  T
C398        N402   1.157       .  T
C399        N404   1.157       .  T
C400        N403   1.157       .  T
C409        C410   1.408       .  A
C409        C414   1.397       .  A
C409        C423   1.444       .  S
C410        C415   1.481       .  S
C410        C411   1.400       .  A
C411        C412   1.399       .  A
C411        H430   1.085       .  S
C412        C413   1.419       .  A
C412        C424   1.444       .  S
C413        C414   1.407       .  A
C414        H429   1.084       .  S
C415        C416   1.401       .  A
C415        C420   1.407       .  A
C416        C417   1.399       .  A
C416        H431   1.085       .  S
C417        C418   1.418       .  A
C417        C421   1.444       .  S
C418        C419   1.409       .  A
C419        C420   1.397       .  A
C419        H432   1.084       .  S
C420        C422   1.445       .  S
C421        N425   1.157       .  T
C422        N426   1.157       .  T
C423        N428   1.157       .  T
C424        N427   1.157       .  T
C433        C434   1.410       .  A
C433        C438   1.402       .  A
C433        C447   1.444       .  S
C434        C439   1.485       .  S
C434        C435   1.403       .  A
C435        C436   1.402       .  A
C435        H454   1.085       .  S
C436        C437   1.413       .  A
C436        C448   1.445       .  S
C437        C438   1.403       .  A
C438        H453   1.085       .  S
C439        C440   1.399       .  A
C439        C444   1.407       .  A
C440        C441   1.402       .  A
C440        H455   1.085       .  S
C441        C442   1.422       .  A
C441        C445   1.444       .  S
C442        C443   1.410       .  A
C443        C444   1.402       .  A
C443        H456   1.084       .  S
C444        C446   1.444       .  S
C445        N449   1.157       .  T
C446        N450   1.157       .  T
C447        N452   1.157       .  T
C448        N451   1.157       .  T
C457        C458   1.409       .  A
C457        C462   1.401       .  A
C457        C471   1.444       .  S
C458        C463   1.484       .  S
C458        C459   1.401       .  A
C459        C460   1.400       .  A
C459        H478   1.085       .  S
C460        C461   1.417       .  A
C460        C472   1.444       .  S
C461        C462   1.408       .  A
C462        H477   1.084       .  S
C463        C464   1.400       .  A
C463        C468   1.408       .  A
C464        C465   1.400       .  A
C464        H479   1.085       .  S
C465        C466   1.422       .  A
C465        C469   1.444       .  S
C466        C467   1.410       .  A
C467        C468   1.400       .  A
C467        H480   1.084       .  S
C468        C470   1.444       .  S
C469        N473   1.158       .  T
C470        N474   1.157       .  T
C471        N476   1.157       .  T
C472        N475   1.157       .  T
C481        C482   1.413       .  A
C481        C486   1.403       .  A
C481        C495   1.444       .  S
C482        C487   1.493       .  S
C482        C483   1.405       .  A
C483        C484   1.403       .  A
C483        H502   1.085       .  S
C484        C485   1.414       .  A
C484        C496   1.444       .  S
C485        C486   1.404       .  A
C486        H501   1.085       .  S
C487        C488   1.405       .  A
C487        C492   1.413       .  A
C488        C489   1.403       .  A
C488        H503   1.085       .  S
C489        C490   1.412       .  A
C489        C493   1.444       .  S
C490        C491   1.404       .  A
C491        C492   1.403       .  A
C491        H504   1.085       .  S
C492        C494   1.444       .  S
C493        N497   1.157       .  T
C494        N498   1.157       .  T
C495        N500   1.157       .  T
C496        N499   1.157       .  T
C505        C506   1.416       .  A
C505        C510   1.401       .  A
C505        C519   1.444       .  S
C506        C511   1.498       .  S
C506        C507   1.406       .  A
C507        C508   1.403       .  A
C507        H526   1.084       .  S
C508        C509   1.414       .  A
C508        C520   1.444       .  S
C509        C510   1.405       .  A
C510        H525   1.085       .  S
C511        C512   1.405       .  A
C511        C516   1.415       .  A
C512        C513   1.402       .  A
C512        H527   1.084       .  S
C513        C514   1.417       .  A
C513        C517   1.444       .  S
C514        C515   1.406       .  A
C515        C516   1.402       .  A
C515        H528   1.085       .  S
C516        C518   1.444       .  S
C517        N521   1.157       .  T
C518        N522   1.157       .  T
C519        N524   1.157       .  T
C520        N523   1.157       .  T
C529        C530   1.409       .  A
C529        C534   1.400       .  A
C529        C543   1.444       .  S
C530        C535   1.481       .  S
C530        C531   1.401       .  A
C531        C532   1.399       .  A
C531        H550   1.085       .  S
C532        C533   1.414       .  A
C532        C544   1.444       .  S
C533        C534   1.406       .  A
C534        H549   1.085       .  S
C535        C536   1.402       .  A
C535        C540   1.409       .  A
C536        C537   1.401       .  A
C536        H551   1.085       .  S
C537        C538   1.413       .  A
C537        C541   1.444       .  S
C538        C539   1.404       .  A
C539        C540   1.398       .  A
C539        H552   1.085       .  S
C540        C542   1.444       .  S
C541        N545   1.157   1_545  T
C542        N546   1.157       .  T
C543        N548   1.157       .  T
C544        N547   1.157       .  T
C553        C554   1.409       .  A
C553        C558   1.402       .  A
C553        C567   1.444       .  S
C554        C559   1.483       .  S
C554        C555   1.400       .  A
C555        C556   1.400       .  A
C555        H574   1.085       .  S
C556        C557   1.416       .  A
C556        C568   1.444       .  S
C557        C558   1.407       .  A
C558        H573   1.084       .  S
C559        C560   1.402       .  A
C559        C564   1.409       .  A
C560        C561   1.401       .  A
C560        H575   1.085       .  S
C561        C562   1.415       .  A
C561        C565   1.444       .  S
C562        C563   1.405       .  A
C563        C564   1.401       .  A
C563        H576   1.085       .  S
C564        C566   1.444       .  S
C565        N569   1.157       .  T
C566        N570   1.157       .  T
C567        N572   1.157       .  T
C568        N571   1.157       .  T
C577        C578   1.411       .  A
C577        C582   1.400       .  A
C577        C591   1.444       .  S
C578        C583   1.484       .  S
C578        C579   1.402       .  A
C579        C580   1.400       .  A
C579        H598   1.085       .  S
C580        C581   1.415       .  A
C580        C592   1.445       .  S
C581        C582   1.404       .  A
C582        H597   1.085       .  S
C583        C584   1.401       .  A
C583        C588   1.407       .  A
C584        C585   1.402       .  A
C584        H599   1.085       .  S
C585        C586   1.420       .  A
C585        C589   1.444       .  S
C586        C587   1.411       .  A
C587        C588   1.398       .  A
C587        H600   1.084       .  S
C588        C590   1.445       .  S
C589        N593   1.157       .  T
C590        N594   1.157       .  T
C591        N596   1.157       .  T
C592        N595   1.157       .  T
C601        C602   1.410       .  A
C601        C606   1.398       .  A
C601        C615   1.444       .  S
C602        C607   1.477       .  S
C602        C603   1.401   1_565  A
C603        C604   1.397       .  A
C603        H622   1.085       .  S
C604        C605   1.410   1_545  A
C604        C616   1.444       .  S
C605        C606   1.402       .  A
C606        H621   1.085       .  S
C607        C608   1.402   1_565  A
C607        C612   1.409       .  A
C608        C609   1.399       .  A
C608        H623   1.085       .  S
C609        C610   1.410       .  A
C609        C613   1.444       .  S
C610        C611   1.404   1_545  A
C611        C612   1.397       .  A
C611        H624   1.084       .  S
C612        C614   1.444       .  S
C613        N617   1.157       .  T
C614        N618   1.157       .  T
C615        N620   1.157       .  T
C616        N619   1.157       .  T
C625        C626   1.410       .  A
C625        C630   1.402       .  A
C625        C639   1.444       .  S
C626        C631   1.483       .  S
C626        C627   1.400   1_565  A
C627        C628   1.400       .  A
C627        H646   1.085       .  S
C628        C629   1.417   1_545  A
C628        C640   1.444       .  S
C629        C630   1.407       .  A
C630        H645   1.084       .  S
C631        C632   1.400   1_565  A
C631        C636   1.405       .  A
C632        C633   1.404       .  A
C632        H647   1.085       .  S
C633        C634   1.423   1_545  A
C633        C637   1.443       .  S
C634        C635   1.411       .  A
C635        C636   1.398       .  A
C635        H648   1.082       .  S
C636        C638   1.444       .  S
C637        N641   1.157       .  T
C638        N642   1.157       .  T
C639        N644   1.157       .  T
C640        N643   1.157       .  T
C649        C650   1.408   1_565  A
C649        C654   1.400       .  A
C649        C663   1.444       .  S
C650        C655   1.482       .  S
C650        C651   1.399       .  A
C651        C652   1.400       .  A
C651        H670   1.085       .  S
C652        C653   1.422       .  A
C652        C664   1.444       .  S
C653        C654   1.409   1_545  A
C654        H669   1.084       .  S
C655        C656   1.399   1_545  A
C655        C660   1.410       .  A
C656        C657   1.398       .  A
C656        H671   1.085       .  S
C657        C658   1.417   1_565  A
C657        C661   1.444       .  S
C658        C659   1.407       .  A
C659        C660   1.402       .  A
C659        H672   1.084       .  S
C660        C662   1.444       .  S
C661        N665   1.157       .  T
C662        N666   1.157       .  T
C663        N668   1.157       .  T
C664        N667   1.157       .  T
C673        C674   1.407   1_545  A
C673        C678   1.398       .  A
C673        C687   1.444       .  S
C674        C679   1.477       .  S
C674        C675   1.400       .  A
C675        C676   1.400       .  A
C675        H694   1.085       .  S
C676        C677   1.416       .  A
C676        C688   1.444       .  S
C677        C678   1.406   1_565  A
C678        H693   1.085       .  S
C679        C680   1.399       .  A
C679        C684   1.408   1_565  A
C680        C681   1.398       .  A
C680        H695   1.085       .  S
C681        C682   1.416       .  A
C681        C685   1.444       .  S
C682        C683   1.405   1_565  A
C683        C684   1.400       .  A
C683        H696   1.084       .  S
C684        C686   1.444       .  S
C685        N689   1.157       .  T
C686        N690   1.157       .  T
C687        N692   1.157       .  T
C688        N691   1.157       .  T
C697        C698   1.411       .  A
C697        C702   1.401       .  A
C697        C711   1.444       .  S
C698        C703   1.485       .  S
C698        C699   1.403       .  A
C699        C700   1.398       .  A
C699        H718   1.085       .  S
C700        C701   1.413       .  A
C700        C712   1.445       .  S
C701        C702   1.404       .  A
C702        H717   1.085       .  S
C703        C704   1.404       .  A
C703        C708   1.412       .  A
C704        C705   1.400       .  A
C704        H719   1.085       .  S
C705        C706   1.410       .  A
C705        C709   1.444       .  S
C706        C707   1.401       .  A
C707        C708   1.398       .  A
C707        H720   1.085       .  S
C708        C710   1.444       .  S
C709        N713   1.157       .  T
C710        N714   1.157       .  T
C711        N716   1.157       .  T
C712        N715   1.157       .  T
C721        C722   1.406       .  A
C721        C726   1.399       .  A
C721        C735   1.444       .  S
C722        C727   1.481       .  S
C722        C723   1.400       .  A
C723        C724   1.402       .  A
C723        H742   1.085       .  S
C724        C725   1.420       .  A
C724        C736   1.444       .  S
C725        C726   1.410       .  A
C726        H741   1.084       .  S
C727        C728   1.400       .  A
C727        C732   1.408       .  A
C728        C729   1.400       .  A
C728        H743   1.085       .  S
C729        C730   1.416       .  A
C729        C733   1.444       .  S
C730        C731   1.406       .  A
C731        C732   1.401       .  A
C731        H744   1.085       .  S
C732        C734   1.443       .  S
C733        N737   1.157   1_545  T
C734        N738   1.157       .  T
C735        N740   1.157       .  T
C736        N739   1.157       .  T
C745        C746   1.414       .  A
C745        C750   1.401       .  A
C745        C759   1.444       .  S
C746        C751   1.490       .  S
C746        C747   1.405       .  A
C747        C748   1.400       .  A
C747        H766   1.085       .  S
C748        C749   1.410       .  A
C748        C760   1.444       .  S
C749        C750   1.402       .  A
C750        H765   1.085       .  S
C751        C752   1.404       .  A
C751        C756   1.412       .  A
C752        C753   1.401       .  A
C752        H767   1.085       .  S
C753        C754   1.414       .  A
C753        C757   1.444       .  S
C754        C755   1.405       .  A
C755        C756   1.400       .  A
C755        H768   1.085       .  S
C756        C758   1.444       .  S
C757        N761   1.157       .  T
C758        N762   1.157       .  T
C759        N764   1.157       .  T
C760        N763   1.157       .  T
C769        C770   1.405       .  A
C769        C774   1.401       .  A
C769        C783   1.444       .  S
C770        C775   1.483       .  S
C770        C771   1.399       .  A
C771        C772   1.403       .  A
C771        H790   1.085       .  S
C772        C773   1.423       .  A
C772        C784   1.444       .  S
C773        C774   1.412       .  A
C774        H789   1.084       .  S
C775        C776   1.402       .  A
C775        C780   1.409       .  A
C776        C777   1.403       .  A
C776        H791   1.085       .  S
C777        C778   1.415       .  A
C777        C781   1.444       .  S
C778        C779   1.405       .  A
C779        C780   1.400       .  A
C779        H792   1.085       .  S
C780        C782   1.444       .  S
C781        N785   1.157       .  T
C782        N786   1.157       .  T
C783        N788   1.157       .  T
C784        N787   1.158       .  T
C793        C794   1.406       .  A
C793        C798   1.398       .  A
C793        C807   1.444       .  S
C794        C799   1.476       .  S
C794        C795   1.400       .  A
C795        C796   1.399       .  A
C795        H814   1.085       .  S
C796        C797   1.416       .  A
C796        C808   1.444       .  S
C797        C798   1.407       .  A
C798        H813   1.085       .  S
C799        C800   1.399       .  A
C799        C804   1.406       .  A
C800        C801   1.400       .  A
C800        H815   1.085       .  S
C801        C802   1.419       .  A
C801        C805   1.444       .  S
C802        C803   1.408       .  A
C803        C804   1.399       .  A
C803        H816   1.084       .  S
C804        C806   1.444       .  S
C805        N809   1.157       .  T
C806        N810   1.157       .  T
C807        N812   1.157       .  T
C808        N811   1.157       .  T
C817        C818   1.407       .  A
C817        C822   1.401       .  A
C817        C831   1.444       .  S
C818        C823   1.479       .  S
C818        C819   1.399       .  A
C819        C820   1.399       .  A
C819        H838   1.085       .  S
C820        C821   1.417       .  A
C820        C832   1.444       .  S
C821        C822   1.408       .  A
C822        H837   1.084       .  S
C823        C824   1.399       .  A
C823        C828   1.407       .  A
C824        C825   1.400       .  A
C824        H839   1.085       .  S
C825        C826   1.418       .  A
C825        C829   1.445       .  S
C826        C827   1.407       .  A
C827        C828   1.400       .  A
C827        H840   1.084       .  S
C828        C830   1.444       .  S
C829        N833   1.157       .  T
C830        N834   1.157       .  T
C831        N836   1.157       .  T
C832        N835   1.157       .  T
C841        C842   1.410       .  A
C841        C846   1.402       .  A
C841        C855   1.444       .  S
C842        C847   1.487       .  S
C842        C843   1.402       .  A
C843        C844   1.402       .  A
C843        H862   1.085       .  S
C844        C845   1.416       .  A
C844        C856   1.444       .  S
C845        C846   1.407       .  A
C846        H861   1.085       .  S
C847        C848   1.404       .  A
C847        C852   1.413       .  A
C848        C849   1.401       .  A
C848        H863   1.085       .  S
C849        C850   1.409       .  A
C849        C853   1.444       .  S
C850        C851   1.401       .  A
C851        C852   1.401       .  A
C851        H864   1.085       .  S
C852        C854   1.444       .  S
C853        N857   1.157       .  T
C854        N858   1.157       .  T
C855        N860   1.157       .  T
C856        N859   1.157       .  T
C865        C866   1.407       .  A
C865        C870   1.397       .  A
C865        C879   1.444       .  S
C866        C871   1.476       .  S
C866        C867   1.399       .  A
C867        C868   1.400       .  A
C867        H886   1.085       .  S
C868        C869   1.419       .  A
C868        C880   1.444       .  S
C869        C870   1.407       .  A
C870        H885   1.084       .  S
C871        C872   1.399       .  A
C871        C876   1.406       .  A
C872        C873   1.399       .  A
C872        H887   1.085       .  S
C873        C874   1.418       .  A
C873        C877   1.444       .  S
C874        C875   1.407       .  A
C875        C876   1.398       .  A
C875        H888   1.084       .  S
C876        C878   1.444       .  S
C877        N881   1.157       .  T
C878        N882   1.157       .  T
C879        N884   1.157       .  T
C880        N883   1.157       .  T
C889        C890   1.411       .  A
C889        C894   1.400       .  A
C889        C903   1.444       .  S
C890        C895   1.477       .  S
C890        C891   1.401       .  A
C891        C892   1.396       .  A
C891        H910   1.085       .  S
C892        C893   1.410       .  A
C892        C904   1.445       .  S
C893        C894   1.402       .  A
C894        H909   1.085       .  S
C895        C896   1.401       .  A
C895        C900   1.408       .  A
C896        C897   1.399       .  A
C896        H911   1.085       .  S
C897        C898   1.414       .  A
C897        C901   1.444       .  S
C898        C899   1.404       .  A
C899        C900   1.397       .  A
C899        H912   1.083       .  S
C900        C902   1.444       .  S
C901        N905   1.157       .  T
C902        N906   1.157       .  T
C903        N908   1.157       .  T
C904        N907   1.157       .  T
C913        C914   1.409       .  A
C913        C918   1.403       .  A
C913        C927   1.443       .  S
C914        C919   1.487       .  S
C914        C915   1.400       .  A
C915        C916   1.403       .  A
C915        H934   1.085       .  S
C916        C917   1.421       .  A
C916        C928   1.445       .  S
C917        C918   1.408       .  A
C918        H933   1.084       .  S
C919        C920   1.401       .  A
C919        C924   1.408       .  A
C920        C921   1.404       .  A
C920        H935   1.085       .  S
C921        C922   1.419       .  A
C921        C925   1.444       .  S
C922        C923   1.409       .  A
C923        C924   1.401       .  A
C923        H936   1.084       .  S
C924        C926   1.444       .  S
C925        N929   1.157       .  T
C926        N930   1.157       .  T
C927        N932   1.157       .  T
C928        N931   1.158       .  T
C937        C938   1.406       .  A
C937        C942   1.400       .  A
C937        C951   1.444       .  S
C938        C943   1.481       .  S
C938        C939   1.399       .  A
C939        C940   1.400       .  A
C939        H958   1.085       .  S
C940        C941   1.421       .  A
C940        C952   1.444       .  S
C941        C942   1.411       .  A
C942        H957   1.084       .  S
C943        C944   1.400       .  A
C943        C948   1.408       .  A
C944        C945   1.400       .  A
C944        H959   1.085       .  S
C945        C946   1.418       .  A
C945        C949   1.444       .  S
C946        C947   1.407       .  A
C947        C948   1.400       .  A
C947        H960   1.084       .  S
C948        C950   1.444       .  S
C949        N953   1.157       .  T
C950        N954   1.157       .  T
C951        N956   1.157       .  T
C952        N955   1.157       .  T
C961        C962   1.407       .  A
C961        C966   1.400       .  A
C961        C975   1.444       .  S
C962        C967   1.478       .  S
C962        C963   1.400       .  A
C963        C964   1.399       .  A
C963        H982   1.085       .  S
C964        C965   1.417       .  A
C964        C976   1.444       .  S
C965        C966   1.407       .  A
C966        H981   1.085       .  S
C967        C968   1.400       .  A
C967        C972   1.408       .  A
C968        C969   1.400       .  A
C968        H983   1.085       .  S
C969        C970   1.417       .  A
C969        C973   1.445       .  S
C970        C971   1.405       .  A
C971        C972   1.399       .  A
C971        H984   1.085       .  S
C972        C974   1.444       .  S
C973        N977   1.157       .  T
C974        N978   1.157       .  T
C975        N980   1.157       .  T
C976        N979   1.157       .  T
C985        C986   1.412       .  A
C985        C990   1.399       .  A
C985        C999   1.444       .  S
C986        C991   1.483       .  S
C986        C987   1.404   1_545  A
C987        C988   1.400       .  A
C987       H1006   1.085       .  S
C988        C989   1.410   1_565  A
C988       C1000   1.445       .  S
C989        C990   1.400       .  A
C990       H1005   1.085       .  S
C991        C992   1.401   1_545  A
C991        C996   1.411       .  A
C992        C993   1.399       .  A
C992       H1007   1.085       .  S
C993        C994   1.416   1_565  A
C993        C997   1.444       .  S
C994        C995   1.404       .  A
C995        C996   1.400       .  A
C995       H1008   1.084       .  S
C996        C998   1.444       .  S
C997       N1001   1.157       .  T
C998       N1002   1.157       .  T
C999       N1004   1.157       .  T
C1000      N1003   1.157       .  T
C1009      C1010   1.412       .  A
C1009      C1014   1.399       .  A
C1009      C1023   1.444       .  S
C1010      C1015   1.486       .  S
C1010      C1011   1.404   1_545  A
C1011      C1012   1.401       .  A
C1011      H1030   1.085       .  S
C1012      C1013   1.411   1_565  A
C1012      C1024   1.444       .  S
C1013      C1014   1.403       .  A
C1014      H1029   1.085       .  S
C1015      C1016   1.404   1_545  A
C1015      C1020   1.412       .  A
C1016      C1017   1.401       .  A
C1016      H1031   1.085       .  S
C1017      C1018   1.412   1_565  A
C1017      C1021   1.444       .  S
C1018      C1019   1.403       .  A
C1019      C1020   1.400       .  A
C1019      H1032   1.085       .  S
C1020      C1022   1.444       .  S
C1021      N1025   1.157       .  T
C1022      N1026   1.157       .  T
C1023      N1028   1.157       .  T
C1024      N1027   1.157       .  T
C1033      C1034   1.408   1_565  A
C1033      C1038   1.400       .  A
C1033      C1047   1.444       .  S
C1034      C1039   1.477       .  S
C1034      C1035   1.400       .  A
C1035      C1036   1.399       .  A
C1035      H1054   1.085       .  S
C1036      C1037   1.414       .  A
C1036      C1048   1.444       .  S
C1037      C1038   1.406   1_545  A
C1038      H1053   1.085       .  S
C1039      C1040   1.399       .  A
C1039      C1044   1.407   1_545  A
C1040      C1041   1.399       .  A
C1040      H1055   1.085       .  S
C1041      C1042   1.418       .  A
C1041      C1045   1.444       .  S
C1042      C1043   1.407   1_545  A
C1043      C1044   1.400       .  A
C1043      H1056   1.084       .  S
C1044      C1046   1.444       .  S
C1045      N1049   1.157       .  T
C1046      N1050   1.157       .  T
C1047      N1052   1.157       .  T
C1048      N1051   1.157       .  T
C1057      C1058   1.407       .  A
C1057      C1062   1.397       .  A
C1057      C1071   1.444       .  S
C1058      C1063   1.482       .  S
C1058      C1059   1.403       .  A
C1059      C1060   1.403   1_545  A
C1059      H1078   1.085   1_545  S
C1060      C1061   1.416   1_565  A
C1060      C1072   1.444       .  S
C1061      C1062   1.407       .  A
C1062      H1077   1.085       .  S
C1063      C1064   1.402   1_545  A
C1063      C1068   1.409       .  A
C1064      C1065   1.400       .  A
C1064      H1079   1.085       .  S
C1065      C1066   1.414   1_565  A
C1065      C1069   1.444       .  S
C1066      C1067   1.406       .  A
C1067      C1068   1.401       .  A
C1067      H1080   1.085       .  S
C1068      C1070   1.444       .  S
C1069      N1073   1.157       .  T
C1070      N1074   1.157       .  T
C1071      N1076   1.157       .  T
C1072      N1075   1.157       .  T
C1081      C1082   1.411       .  A
C1081      C1086   1.400       .  A
C1081      C1095   1.444       .  S
C1082      C1087   1.484       .  S
C1082      C1083   1.403       .  A
C1083      C1084   1.400       .  A
C1083      H1102   1.085       .  S
C1084      C1085   1.413       .  A
C1084      C1096   1.444       .  S
C1085      C1086   1.404       .  A
C1086      H1101   1.085       .  S
C1087      C1088   1.402       .  A
C1087      C1092   1.412       .  A
C1088      C1089   1.399       .  A
C1088      H1103   1.085       .  S
C1089      C1090   1.412       .  A
C1089      C1093   1.444       .  S
C1090      C1091   1.403       .  A
C1091      C1092   1.401       .  A
C1091      H1104   1.085       .  S
C1092      C1094   1.444       .  S
C1093      N1097   1.157       .  T
C1094      N1098   1.157       .  T
C1095      N1100   1.157       .  T
C1096      N1099   1.157       .  T
C1105      C1106   1.407       .  A
C1105      C1110   1.401       .  A
C1105      C1119   1.444       .  S
C1106      C1111   1.482       .  S
C1106      C1107   1.400       .  A
C1107      C1108   1.403       .  A
C1107      H1126   1.085       .  S
C1108      C1109   1.419       .  A
C1108      C1120   1.444       .  S
C1109      C1110   1.408       .  A
C1110      H1125   1.084       .  S
C1111      C1112   1.400       .  A
C1111      C1116   1.408       .  A
C1112      C1113   1.401       .  A
C1112      H1127   1.085       .  S
C1113      C1114   1.418       .  A
C1113      C1117   1.444       .  S
C1114      C1115   1.407       .  A
C1115      C1116   1.402       .  A
C1115      H1128   1.084       .  S
C1116      C1118   1.444       .  S
C1117      N1121   1.157       .  T
C1118      N1122   1.157       .  T
C1119      N1124   1.157       .  T
C1120      N1123   1.157       .  T
C1129      C1130   1.409       .  A
C1129      C1134   1.397       .  A
C1129      C1143   1.444       .  S
C1130      C1135   1.482       .  S
C1130      C1131   1.403       .  A
C1131      C1132   1.402       .  A
C1131      H1150   1.085       .  S
C1132      C1133   1.414       .  A
C1132      C1144   1.444       .  S
C1133      C1134   1.404       .  A
C1134      H1149   1.085       .  S
C1135      C1136   1.402       .  A
C1135      C1140   1.412       .  A
C1136      C1137   1.400       .  A
C1136      H1151   1.085       .  S
C1137      C1138   1.412       .  A
C1137      C1141   1.444       .  S
C1138      C1139   1.401       .  A
C1139      C1140   1.400       .  A
C1139      H1152   1.085       .  S
C1140      C1142   1.444       .  S
C1141      N1145   1.157       .  T
C1142      N1146   1.157       .  T
C1143      N1148   1.157       .  T
C1144      N1147   1.157       .  T
C1153      C1154   1.407       .  A
C1153      C1158   1.399       .  A
C1153      C1167   1.444       .  S
C1154      C1159   1.479       .  S
C1154      C1155   1.401       .  A
C1155      C1156   1.400       .  A
C1155      H1174   1.085       .  S
C1156      C1157   1.416       .  A
C1156      C1168   1.444       .  S
C1157      C1158   1.406       .  A
C1158      H1173   1.084       .  S
C1159      C1160   1.398       .  A
C1159      C1164   1.406       .  A
C1160      C1161   1.399       .  A
C1160      H1175   1.085       .  S
C1161      C1162   1.421       .  A
C1161      C1165   1.445       .  S
C1162      C1163   1.409       .  A
C1163      C1164   1.400       .  A
C1163      H1176   1.084       .  S
C1164      C1166   1.444       .  S
C1165      N1169   1.157       .  T
C1166      N1170   1.157       .  T
C1167      N1172   1.157       .  T
C1168      N1171   1.157       .  T
C1177      C1178   1.407       .  A
C1177      C1182   1.399       .  A
C1177      C1191   1.444       .  S
C1178      C1183   1.479       .  S
C1178      C1179   1.400       .  A
C1179      C1180   1.401       .  A
C1179      H1198   1.085       .  S
C1180      C1181   1.418       .  A
C1180      C1192   1.444       .  S
C1181      C1182   1.407       .  A
C1182      H1197   1.084       .  S
C1183      C1184   1.399       .  A
C1183      C1188   1.406       .  A
C1184      C1185   1.401       .  A
C1184      H1199   1.085       .  S
C1185      C1186   1.420       .  A
C1185      C1189   1.444       .  S
C1186      C1187   1.409       .  A
C1187      C1188   1.400       .  A
C1187      H1200   1.084       .  S
C1188      C1190   1.444       .  S
C1189      N1193   1.157       .  T
C1190      N1194   1.157       .  T
C1191      N1196   1.157       .  T
C1192      N1195   1.157       .  T
C1201      C1202   1.405       .  A
C1201      C1206   1.397       .  A
C1201      C1215   1.444       .  S
C1202      C1207   1.476       .  S
C1202      C1203   1.400       .  A
C1203      C1204   1.401       .  A
C1203      H1222   1.085       .  S
C1204      C1205   1.416       .  A
C1204      C1216   1.444       .  S
C1205      C1206   1.408       .  A
C1206      H1221   1.085       .  S
C1207      C1208   1.399       .  A
C1207      C1212   1.407       .  A
C1208      C1209   1.399       .  A
C1208      H1223   1.078       .  S
C1209      C1210   1.418       .  A
C1209      C1213   1.445       .  S
C1210      C1211   1.407       .  A
C1211      C1212   1.400       .  A
C1211      H1224   1.074       .  S
C1212      C1214   1.444       .  S
C1213      N1217   1.157       .  T
C1214      N1218   1.157       .  T
C1215      N1220   1.157       .  T
C1216      N1219   1.157       .  T
C1225      C1226   1.407       .  A
C1225      C1230   1.398       .  A
C1225      C1239   1.444       .  S
C1226      C1231   1.481       .  S
C1226      C1227   1.400       .  A
C1227      C1228   1.401       .  A
C1227      H1246   1.085       .  S
C1228      C1229   1.421       .  A
C1228      C1240   1.444       .  S
C1229      C1230   1.409       .  A
C1230      H1245   1.084       .  S
C1231      C1232   1.401       .  A
C1231      C1236   1.407       .  A
C1232      C1233   1.400       .  A
C1232      H1247   1.085       .  S
C1233      C1234   1.417       .  A
C1233      C1237   1.444       .  S
C1234      C1235   1.408       .  A
C1235      C1236   1.398       .  A
C1235      H1248   1.084       .  S
C1236      C1238   1.444       .  S
C1237      N1241   1.157       .  T
C1238      N1242   1.157       .  T
C1239      N1244   1.157       .  T
C1240      N1243   1.158       .  T
C1249      C1250   1.411       .  A
C1249      C1254   1.396       .  A
C1249      C1263   1.444       .  S
C1250      C1255   1.481       .  S
C1250      C1251   1.404       .  A
C1251      C1252   1.399       .  A
C1251      H1270   1.085       .  S
C1252      C1253   1.410       .  A
C1252      C1264   1.444       .  S
C1253      C1254   1.402       .  A
C1254      H1269   1.085       .  S
C1255      C1256   1.402       .  A
C1255      C1260   1.408       .  A
C1256      C1257   1.399       .  A
C1256      H1271   1.085       .  S
C1257      C1258   1.417       .  A
C1257      C1261   1.444       .  S
C1258      C1259   1.407       .  A
C1259      C1260   1.397       .  A
C1259      H1272   1.085       .  S
C1260      C1262   1.444       .  S
C1261      N1265   1.157       .  T
C1262      N1266   1.157       .  T
C1263      N1268   1.157       .  T
C1264      N1267   1.157       .  T
C1273      C1274   1.410       .  A
C1273      C1278   1.398       .  A
C1273      C1287   1.444       .  S
C1274      C1279   1.481       .  S
C1274      C1275   1.403       .  A
C1275      C1276   1.399       .  A
C1275      H1294   1.085       .  S
C1276      C1277   1.411       .  A
C1276      C1288   1.444       .  S
C1277      C1278   1.402       .  A
C1278      H1293   1.085       .  S
C1279      C1280   1.404       .  A
C1279      C1284   1.410       .  A
C1280      C1281   1.399       .  A
C1280      H1295   1.085       .  S
C1281      C1282   1.411       .  A
C1281      C1285   1.444       .  S
C1282      C1283   1.403       .  A
C1283      C1284   1.397       .  A
C1283      H1296   1.083       .  S
C1284      C1286   1.444       .  S
C1285      N1289   1.157       .  T
C1286      N1290   1.157       .  T
C1287      N1292   1.157       .  T
C1288      N1291   1.157       .  T
C1297      C1298   1.413       .  A
C1297      C1302   1.400       .  A
C1297      C1311   1.444       .  S
C1298      C1303   1.487       .  S
C1298      C1299   1.404       .  A
C1299      C1300   1.399       .  A
C1299      H1318   1.085       .  S
C1300      C1301   1.410       .  A
C1300      C1312   1.445       .  S
C1301      C1302   1.401       .  A
C1302      H1317   1.085       .  S
C1303      C1304   1.403       .  A
C1303      C1308   1.412       .  A
C1304      C1305   1.398       .  A
C1304      H1319   1.085       .  S
C1305      C1306   1.412       .  A
C1305      C1309   1.444       .  S
C1306      C1307   1.404       .  A
C1307      C1308   1.401       .  A
C1307      H1320   1.085       .  S
C1308      C1310   1.444       .  S
C1309      N1313   1.157       .  T
C1310      N1314   1.157       .  T
C1311      N1316   1.157       .  T
C1312      N1315   1.157       .  T
C1321      C1322   1.414       .  A
C1321      C1326   1.402       .  A
C1321      C1335   1.444       .  S
C1322      C1327   1.494       .  S
C1322      C1323   1.406       .  A
C1323      C1324   1.402       .  A
C1323      H1342   1.084       .  S
C1324      C1325   1.412       .  A
C1324      C1336   1.444       .  S
C1325      C1326   1.403       .  A
C1326      H1341   1.085       .  S
C1327      C1328   1.407       .  A
C1327      C1332   1.413       .  A
C1328      C1329   1.403       .  A
C1328      H1343   1.085       .  S
C1329      C1330   1.412       .  A
C1329      C1333   1.444       .  S
C1330      C1331   1.405       .  A
C1331      C1332   1.400       .  A
C1331      H1344   1.085       .  S
C1332      C1334   1.444       .  S
C1333      N1337   1.157       .  T
C1334      N1338   1.157       .  T
C1335      N1340   1.157       .  T
C1336      N1339   1.157       .  T
C1345      C1346   1.408       .  A
C1345      C1350   1.400       .  A
C1345      C1359   1.444       .  S
C1346      C1351   1.484       .  S
C1346      C1347   1.401       .  A
C1347      C1348   1.401       .  A
C1347      H1366   1.085       .  S
C1348      C1349   1.419       .  A
C1348      C1360   1.444       .  S
C1349      C1350   1.409       .  A
C1350      H1365   1.084       .  S
C1351      C1352   1.400       .  A
C1351      C1356   1.409       .  A
C1352      C1353   1.401       .  A
C1352      H1367   1.085       .  S
C1353      C1354   1.418       .  A
C1353      C1357   1.444       .  S
C1354      C1355   1.409       .  A
C1355      C1356   1.401       .  A
C1355      H1368   1.084       .  S
C1356      C1358   1.444       .  S
C1357      N1361   1.157       .  T
C1358      N1362   1.157       .  T
C1359      N1364   1.157       .  T
C1360      N1363   1.157       .  T
C1369      C1370   1.409       .  A
C1369      C1374   1.400       .  A
C1369      C1383   1.444       .  S
C1370      C1375   1.484       .  S
C1370      C1371   1.402       .  A
C1371      C1372   1.401       .  A
C1371      H1390   1.085       .  S
C1372      C1373   1.415       .  A
C1372      C1384   1.444       .  S
C1373      C1374   1.406       .  A
C1374      H1389   1.085       .  S
C1375      C1376   1.400       .  A
C1375      C1380   1.406       .  A
C1376      C1377   1.401       .  A
C1376      H1391   1.085       .  S
C1377      C1378   1.422       .  A
C1377      C1381   1.444       .  S
C1378      C1379   1.411       .  A
C1379      C1380   1.400       .  A
C1379      H1392   1.084       .  S
C1380      C1382   1.444       .  S
C1381      N1385   1.158       .  T
C1382      N1386   1.157       .  T
C1383      N1388   1.157       .  T
C1384      N1387   1.157       .  T
C1393      C1394   1.408       .  A
C1393      C1398   1.400       .  A
C1393      C1407   1.444       .  S
C1394      C1399   1.482       .  S
C1394      C1395   1.400       .  A
C1395      C1396   1.399       .  A
C1395      H1414   1.085       .  S
C1396      C1397   1.420       .  A
C1396      C1408   1.444       .  S
C1397      C1398   1.410       .  A
C1398      H1413   1.084       .  S
C1399      C1400   1.400       .  A
C1399      C1404   1.408       .  A
C1400      C1401   1.399       .  A
C1400      H1415   1.085       .  S
C1401      C1402   1.420       .  A
C1401      C1405   1.445       .  S
C1402      C1403   1.407       .  A
C1403      C1404   1.400       .  A
C1403      H1416   1.084       .  S
C1404      C1406   1.444       .  S
C1405      N1409   1.158       .  T
C1406      N1410   1.157       .  T
C1407      N1412   1.157       .  T
C1408      N1411   1.157       .  T
