geometry optimzed in LAMMPS
_audit_creation_date              2020-11-30 
_audit_creation_method            'lammps2cif' 
_symmetry_space_group_name_H-M    'P1' 
_symmetry_Int_Tables_number       1 
_symmetry_cell_setting            triclinic 
loop_ 
_symmetry_equiv_pos_as_xyz 
  x,y,z 
_cell_length_a                    25.330314831630854 
_cell_length_b                    24.985691010639496 
_cell_length_c                    31.396551768781716 
_cell_angle_alpha                 90.33690267380433 
_cell_angle_beta                  90.84746051565833 
_cell_angle_gamma                 90.9122113645311 
loop_ 
_atom_site_label 
_atom_site_type_symbol 
_atom_site_fract_x 
_atom_site_fract_y 
_atom_site_fract_z 
_atom_site_charge 
In1        In  0.25225404  0.62908652  0.12489623     1.36870
C2          C  0.24547994  0.69419365  0.05833320     0.77120
O3          O  0.21478773  0.68882930  0.16682876    -0.61330
O4          O  0.29603329  0.67322458  0.17790982    -0.52240
C5          C  0.17842002  0.56640924  0.15769794     0.69780
O6          O  0.17332372  0.58738764  0.12135253    -0.47100
C7          C  0.32818328  0.56473757  0.09995771     0.74490
O8          O  0.20548051  0.67027156  0.07275095    -0.58960
O9          O  0.33480356  0.59957954  0.12886204    -0.49050
O10         O  0.28799804  0.68478415  0.07775255    -0.55390
C11         C  0.25545499  0.69772358  0.18930741     0.84670
O12         O  0.22351781  0.57296145  0.17459920    -0.57280
O13         O  0.28134064  0.56020568  0.08585312    -0.60580
In14       In  0.24631865  0.79944076  0.29149469     1.36870
C15         C  0.24395128  0.73039747  0.02200034     0.77120
O16         O  0.21133227  0.74157803  0.24491618    -0.61330
O17         O  0.29403389  0.75687854  0.24188965    -0.52240
C18         C  0.17129348  0.85881859  0.25743141     0.69780
O19         O  0.16523437  0.83354468  0.29180854    -0.47100
C20         C  0.31762697  0.86836492  0.32270532     0.74490
O21         O  0.20289077  0.75385647  0.00936244    -0.58960
O22         O  0.32340590  0.84272336  0.28843136    -0.49050
O23         O  0.28494963  0.74137311  0.33486848    -0.55390
C24         C  0.25399520  0.73284181  0.22635536     0.84670
O25         O  0.21757044  0.85792626  0.24312223    -0.57280
O26         O  0.27292831  0.86182258  0.33938270    -0.60580
In27       In  0.32901905  0.22049000  0.21134805     1.36870
C28         C  0.26352386  0.21483863  0.27717681     0.77120
O29         O  0.39526280  0.25025958  0.25393425    -0.61330
O30         O  0.36365931  0.30330558  0.20792748    -0.52240
C31         C  0.39350055  0.14689773  0.18069953     0.69780
O32         O  0.36821514  0.14052631  0.21470432    -0.47100
C33         C  0.26193682  0.22454317  0.14551177     0.74490
O34         O  0.28470649  0.17370129  0.26206184    -0.58960
O35         O  0.28553736  0.26581147  0.15975064    -0.49050
O36         O  0.27555843  0.25764386  0.25863956    -0.55390
C37         C  0.39558290  0.29690560  0.23866963     0.84670
O38         O  0.38844648  0.19266481  0.16444045    -0.57280
O39         O  0.27161909  0.18225724  0.16544721    -0.60580
In40       In  0.15900213  0.22040964  0.04313733     1.36870
C41         C  0.22761678  0.21455673  0.31337552     0.77120
O42         O  0.10347288  0.24938586  0.32648777    -0.61330
O43         O  0.12104658  0.30094217  0.04588625    -0.52240
C44         C  0.08992652  0.15134275  0.07537946     0.69780
O45         O  0.11161724  0.14297617  0.03997121    -0.47100
C46         C  0.22633207  0.22452925  0.10846511     0.74490
O47         O  0.20300219  0.17348514  0.32632212    -0.58960
O48         O  0.20460962  0.26607292  0.09429122    -0.49050
O49         O  0.21815441  0.25702531  0.00004606    -0.55390
C50         C  0.09819006  0.29485468  0.01010708     0.84670
O51         O  0.10063989  0.19631232  0.09203928    -0.57280
O52         O  0.21469549  0.18192824  0.08859168    -0.60580
In53       In  0.74864310  0.13509174  0.29118054     1.36870
C54         C  0.74901700  0.20266876  0.02311127     0.77120
O55         O  0.78322888  0.19453090  0.24668824    -0.61330
O56         O  0.70116699  0.17720594  0.24020547    -0.52240
C57         C  0.82487066  0.07491508  0.26135396     0.69780
O58         O  0.83053040  0.10129237  0.29561432    -0.47100
C59         C  0.67698373  0.06633285  0.31915446     0.74490
O60         O  0.79102780  0.18256945  0.00966860    -0.58960
O61         O  0.67085013  0.09230145  0.28514806    -0.49050
O62         O  0.70778374  0.18886497  0.33627840    -0.55390
C63         C  0.74074897  0.20283355  0.22680435     0.84670
O64         O  0.77891487  0.07551465  0.24537017    -0.57280
O65         O  0.72217084  0.07190377  0.33635403    -0.60580
In66       In  0.74102165  0.30588427  0.12510278     1.36870
C67         C  0.74717204  0.23894833  0.05952305     0.77120
O68         O  0.78015872  0.25106612  0.17079302    -0.61330
O69         O  0.69759587  0.26034280  0.17657546    -0.52240
C70         C  0.81673654  0.37121276  0.15318317     0.69780
O71         O  0.82182270  0.34143387  0.12099872    -0.47100
C72         C  0.66604985  0.37003582  0.09723902     0.74490
O73         O  0.78671792  0.26502537  0.07343905    -0.58960
O74         O  0.66019471  0.34046342  0.12930406    -0.49050
O75         O  0.70509829  0.24675064  0.07919238    -0.55390
C76         C  0.73902508  0.23887450  0.19048531     0.84670
O77         O  0.77105893  0.37162410  0.16872976    -0.57280
O78         O  0.71151027  0.36905498  0.08132560    -0.60580
In79       In  0.66204390  0.71907941  0.20466104     1.36870
C80         C  0.72884918  0.71439180  0.14019844     0.77120
O81         O  0.60369432  0.74994432  0.15775137    -0.61330
O82         O  0.62396089  0.79937514  0.21097561    -0.52240
C83         C  0.59237087  0.64499978  0.22815875     0.69780
O84         O  0.62305636  0.63814323  0.19732578    -0.47100
C85         C  0.72816201  0.72292981  0.27135651     0.74490
O86         O  0.70817778  0.67282869  0.15577500    -0.58960
O87         O  0.70914301  0.76474918  0.25548025    -0.49050
O88         O  0.71614537  0.75741145  0.15793827    -0.55390
C89         C  0.59893177  0.79476171  0.17600645     0.84670
O90         O  0.59569969  0.69079298  0.24523302    -0.57280
O91         O  0.71354523  0.68016745  0.25322307    -0.60580
In92       In  0.83187038  0.71742884  0.04015494     1.36870
C93         C  0.76458196  0.71390806  0.10409285     0.77120
O94         O  0.88563053  0.74964949  0.09125301    -0.61330
O95         O  0.87763228  0.79583283  0.03493815    -0.52240
C96         C  0.89499846  0.64071664  0.01254165     0.69780
O97         O  0.86337846  0.63346254  0.04272671    -0.47100
C98         C  0.76441260  0.72268608  0.30799991     0.74490
O99         O  0.79041208  0.67346805  0.09308957    -0.58960
O100        O  0.78885592  0.76363534  0.32199301    -0.49050
O101        O  0.77232778  0.75503938  0.08194517    -0.55390
C102        C  0.89622143  0.79287107  0.07239153     0.84670
O103        O  0.89614138  0.68793377  0.33187679    -0.57280
O104        O  0.77400289  0.68022595  0.99434793    -0.60580
C105        C  0.99745255  0.97079019  0.17006866    -0.02950
C106        C  0.99692583  0.46945135  0.24716021    -0.02950
C107        C  0.49894431  0.97314721  0.08243560    -0.02950
C108        C  0.49981375  0.47609286  0.33186150    -0.02950
C109        C  0.99344713  0.56647179  0.27887211    -0.09620
C110        C  0.97317016  0.51300244  0.27794227     0.06580
C111        C  0.92771421  0.50289802  0.30357813    -0.03390
C112        C  0.90507659  0.54429343  0.99396310    -0.07840
C113        C  0.92529975  0.59680971  0.32633467     0.05690
C114        C  0.97087442  0.60709840  0.30276470    -0.02860
Br115      Br  0.00501739  0.67618784  0.30144160    -0.02560
H116        H  0.02559630  0.57946658  0.25933318     0.09600
H117        H  0.86973881  0.53570282  0.01187863     0.07620
Br118      Br  0.89191814  0.43446880  0.97409453    -0.02990
C119        C  0.98858419  0.90918392  0.10372432    -0.09620
C120        C  0.96771172  0.92573014  0.14322558     0.06580
C121        C  0.92433558  0.89363142  0.15906295    -0.03390
C122        C  0.90358885  0.85090713  0.13510498    -0.07840
C123        C  0.92250210  0.83815287  0.09507336     0.05690
C124        C  0.96449038  0.86850255  0.07883061    -0.02860
Br125      Br  0.99088154  0.85518783  0.02338096    -0.02560
H126        H  0.02353552  0.92855160  0.09143314     0.09600
H127        H  0.87121219  0.82729550  0.14783177     0.07620
Br128      Br  0.88972978  0.89853134  0.21345359    -0.02990
C129        C  0.57593970  0.54854280  0.24098393    -0.09620
C130        C  0.55945004  0.60134254  0.24583168     0.06580
C131        C  0.51680766  0.61156731  0.27253277    -0.03390
C132        C  0.49666293  0.57092342  0.29826935    -0.07840
C133        C  0.51853724  0.51904328  0.29909147     0.05690
C134        C  0.55605518  0.50748168  0.26668204    -0.02860
Br135      Br  0.59008677  0.43984455  0.25906429    -0.02560
H136        H  0.60785459  0.53977008  0.21954787     0.09600
H137        H  0.46340142  0.58105386  0.31753221     0.07620
Br138      Br  0.48327644  0.67994568  0.27436357    -0.02990
C139        C  0.53235103  0.92795070  0.15384909    -0.09620
C140        C  0.52540521  0.92661191  0.10875172     0.06580
C141        C  0.54593505  0.88040323  0.08784755    -0.03390
C142        C  0.56520780  0.83737383  0.11107651    -0.07840
C143        C  0.57035551  0.83916904  0.15531970     0.05690
C144        C  0.55441003  0.88553615  0.17679745    -0.02860
Br145      Br  0.56262354  0.89434587  0.23733247    -0.02560
H146        H  0.52478251  0.96340628  0.17217212     0.09600
H147        H  0.58006976  0.80322680  0.09377400     0.07620
Br148      Br  0.55831635  0.87278967  0.02800763    -0.02990
C149        C  0.63698004  0.44693241  0.05441026    -0.09620
C150        C  0.62322642  0.40203290  0.07830830     0.06580
C151        C  0.56967377  0.38703747  0.08085816    -0.03390
C152        C  0.53189592  0.41494646  0.05743625    -0.07840
C153        C  0.54559770  0.45629875  0.02860960     0.05690
C154        C  0.59957135  0.47516189  0.03066741    -0.02860
Br155      Br  0.62968904  0.53991511  0.00730426    -0.02560
H156        H  0.67790981  0.46029156  0.05416719     0.09600
H157        H  0.49137943  0.40074604  0.05895187     0.07620
Br158      Br  0.54550802  0.32500501  0.11128255    -0.02990
C159        C  0.86439062  0.45276851  0.18086413    -0.09620
C160        C  0.86234991  0.39748197  0.17417603     0.06580
C161        C  0.90311432  0.36605539  0.19012923    -0.03390
C162        C  0.94397529  0.38944457  0.21383498    -0.07840
C163        C  0.94972732  0.44565899  0.21954226     0.05690
C164        C  0.90777099  0.47738929  0.20205243    -0.02860
Br165      Br  0.90712053  0.55445321  0.20148072    -0.02560
H166        H  0.83279703  0.47713261  0.16836780     0.09600
H167        H  0.97005894  0.36126227  0.22809705     0.07620
Br168      Br  0.90389623  0.28951018  0.18298988    -0.02990
C169        C  0.63865796  0.02774126  0.05061105    -0.09620
C170        C  0.63342220  0.03693823  0.00687864     0.06580
C171        C  0.58365560  0.02814354  0.32079062    -0.03390
C172        C  0.54126042  0.01027884  0.01186991    -0.07840
C173        C  0.54603285  0.99723553  0.05567530     0.05690
C174        C  0.59578580  0.01149833  0.07515811    -0.02860
Br175      Br  0.60797747  0.02208924  0.13513715    -0.02560
H176        H  0.67546164  0.03820290  0.06687063     0.09600
H177        H  0.50289990  0.01546326  0.33067607     0.07620
Br178      Br  0.56835261  0.04423882  0.26207226    -0.02990
C179        C  0.91165203  0.02865673  0.26404866    -0.09620
C180        C  0.86903035  0.04814912  0.24009649     0.06580
C181        C  0.87032966  0.04416821  0.19556205    -0.03390
C182        C  0.91251947  0.01976919  0.17615052    -0.07840
C183        C  0.95573595  0.99792399  0.19915922     0.05690
C184        C  0.95470710  0.00354865  0.24471816    -0.02860
Br185      Br  0.00575526  0.97793555  0.28529473    -0.02560
H186        H  0.91087490  0.03210725  0.29843931     0.09600
H187        H  0.91064465  0.01667848  0.14180767     0.07620
Br188      Br  0.81738012  0.07354981  0.15818773    -0.02990
C189        C  0.07083218  0.10424480  0.14180681    -0.09620
C190        C  0.05982490  0.10992273  0.09852098     0.06580
C191        C  0.02338942  0.07460409  0.07886809    -0.03390
C192        C  0.00244974  0.03109094  0.10171276    -0.07840
C193        C  0.01824223  0.02074936  0.14453251     0.05690
C194        C  0.05029931  0.06148787  0.16495056    -0.02860
Br195      Br  0.07314789  0.06185005  0.22343258    -0.02560
H196        H  0.09774712  0.13238587  0.15760969     0.09600
H197        H  0.97276726  0.00654934  0.08573458     0.07620
Br198      Br  0.99751873  0.08804856  0.02244254    -0.02990
C199        C  0.02079583  0.42005421  0.31852817    -0.09620
C200        C  0.02488031  0.42361430  0.27348790     0.06580
C201        C  0.05781751  0.38458466  0.25360599    -0.03270
C202        C  0.07973891  0.34320868  0.27723765    -0.07840
C203        C  0.07163418  0.33861848  0.32084683     0.05690
C204        C  0.04180985  0.37728914  0.00824241    -0.02860
Br205      Br  0.02476608  0.37066348  0.06729004    -0.02560
H206        H  0.00066742  0.44961742  0.33694277     0.09600
H207        H  0.10391287  0.31412654  0.26118704     0.07620
Br208      Br  0.07313709  0.38018167  0.19369725    -0.02990
C209        C  0.44577429  0.01095640  0.14695741    -0.09620
C210        C  0.47453278  0.02157735  0.10929054     0.06580
C211        C  0.47522769  0.07759311  0.09733921    -0.03390
C212        C  0.45128339  0.11657301  0.12264414    -0.07840
C213        C  0.42399463  0.10398166  0.15950636     0.05690
C214        C  0.42220128  0.05029737  0.17198782    -0.02860
Br215      Br  0.38747243  0.02688772  0.22272189    -0.02560
H216        H  0.44201635  0.97183636  0.15920316     0.09600
H217        H  0.45236619  0.15792033  0.11236237     0.07620
Br218      Br  0.50135895  0.11148439  0.04687980    -0.02990
C219        C  0.40810933  0.39370474  0.25330404    -0.09620
C220        C  0.42726409  0.34176954  0.25731431     0.06580
C221        C  0.47344047  0.33393533  0.28161367    -0.03390
C222        C  0.49726043  0.37695647  0.30364182    -0.07840
C223        C  0.47591043  0.42923971  0.30324335     0.05690
C224        C  0.43141524  0.43695926  0.27539230    -0.02860
Br225      Br  0.39526591  0.50349888  0.26798179    -0.02560
H226        H  0.37283499  0.40048911  0.23426765     0.09600
H227        H  0.53371963  0.36852612  0.32021289     0.07620
Br228      Br  0.50753659  0.26588958  0.28464996    -0.02990
C229        C  0.36080877  0.90469823  0.05480941    -0.09620
C230        C  0.36125826  0.89917771  0.01049886     0.06580
C231        C  0.40798160  0.91248338  0.32277140    -0.03390
C232        C  0.45106235  0.93386855  0.01231670    -0.07840
C233        C  0.45105752  0.94407003  0.05699927     0.05690
C234        C  0.40633341  0.92048898  0.07793386    -0.02860
Br235      Br  0.40970467  0.88243976  0.13108292    -0.02560
H236        H  0.32756190  0.88826616  0.07204145     0.09600
H237        H  0.48595004  0.93552176  0.32715243     0.07620
Br238      Br  0.41847213  0.89856902  0.26311450    -0.02990
C239        C  0.13926063  0.92248297  0.20267369    -0.09620
C240        C  0.12756440  0.88551174  0.23451705     0.06580
C241        C  0.07456406  0.86969315  0.23947051    -0.03390
C242        C  0.03442491  0.89738145  0.21849990    -0.07840
C243        C  0.04498682  0.94039002  0.19075647     0.05690
C244        C  0.09920325  0.94612849  0.17841074    -0.02860
Br245      Br  0.12398371  0.97289621  0.12461106    -0.02560
H246        H  0.18006460  0.93015175  0.19441661     0.09600
H247        H  0.99451469  0.88519819  0.22480070     0.07620
Br248      Br  0.05466930  0.80610471  0.26931628    -0.02990
C249        C  0.08869882  0.52516189  0.15575558    -0.09620
C250        C  0.13397305  0.53936786  0.17949675     0.06580
C251        C  0.13388955  0.53127693  0.22380099    -0.03390
C252        C  0.08930802  0.50948128  0.24298746    -0.07840
C253        C  0.04240283  0.49517655  0.21994185     0.05690
C254        C  0.04361081  0.50295056  0.17463413    -0.02860
Br255      Br  0.99112364  0.48203423  0.13273280    -0.02560
H256        H  0.08858224  0.53097024  0.12156658     0.09600
H257        H  0.09080009  0.50474537  0.27726241     0.07620
Br258      Br  0.19150897  0.55170176  0.26138072    -0.02990
C259        C  0.42264104  0.56116304  0.08197113    -0.09620
C260        C  0.37295391  0.53605235  0.08125666     0.06580
C261        C  0.36686608  0.48700074  0.05973022    -0.03390
C262        C  0.40827895  0.46738387  0.03546025    -0.07840
C263        C  0.45648369  0.49657310  0.03019820     0.05690
C264        C  0.46435966  0.54156538  0.05807701    -0.02860
Br265      Br  0.52891599  0.58167249  0.39869734    -0.02560
H266        H  0.42870340  0.59783386  0.10012753     0.09600
H267        H  0.40171008  0.42861017  0.02086085     0.07620
Br268      Br  0.30388444  0.44369428  0.06394202    -0.02990
In269      In  0.25225265  0.62908257  0.45823115     1.36870
C270        C  0.24547588  0.69418729  0.39166658     0.77120
O271        O  0.21478805  0.68882729  0.50016276    -0.61330
O272        O  0.29603368  0.67322258  0.51124309    -0.52240
C273        C  0.17842008  0.56640366  0.49103289     0.69780
O274        O  0.17332594  0.58737649  0.45468519    -0.47100
C275        C  0.32818263  0.56473404  0.43329432     0.74490
O276        O  0.20547482  0.67027688  0.40609294    -0.58960
O277        O  0.33480292  0.59957822  0.46219706    -0.49050
O278        O  0.28799693  0.68476690  0.41107781    -0.55390
C279        C  0.25545569  0.69772205  0.52264078     0.84670
O280        O  0.22351571  0.57296180  0.50793656    -0.57280
O281        O  0.28133954  0.56019951  0.41919102    -0.60580
In282      In  0.24631970  0.79944011  0.62482763     1.36870
C283        C  0.24394590  0.73039105  0.35533373     0.77120
O284        O  0.21133344  0.74157715  0.57824939    -0.61330
O285        O  0.29403498  0.75687777  0.57522247    -0.52240
C286        C  0.17129398  0.85881756  0.59076449     0.69780
O287        O  0.16523492  0.83354292  0.62514127    -0.47100
C288        C  0.31762768  0.86836467  0.65603814     0.74490
O289        O  0.20288777  0.75386011  0.34270310    -0.58960
O290        O  0.32340671  0.84272314  0.62176417    -0.49050
O291        O  0.28495092  0.74137229  0.66820121    -0.55390
C292        C  0.25399626  0.73284084  0.55968844     0.84670
O293        O  0.21757108  0.85792594  0.57645551    -0.57280
O294        O  0.27292906  0.86182214  0.67271551    -0.60580
In295      In  0.32901905  0.22048909  0.54468123     1.36870
C296        C  0.26352366  0.21483799  0.61050993     0.77120
O297        O  0.39526270  0.25025881  0.58726762    -0.61330
O298        O  0.36365959  0.30330470  0.54126066    -0.52240
C299        C  0.39349978  0.14689575  0.51403278     0.69780
O300        O  0.36821425  0.14052474  0.54803755    -0.47100
C301        C  0.26193668  0.22454277  0.47884495     0.74490
O302        O  0.28470680  0.17370069  0.59539538    -0.58960
O303        O  0.28553772  0.26581084  0.49308370    -0.49050
O304        O  0.27555781  0.25764307  0.59197227    -0.55390
C305        C  0.39558290  0.29690483  0.57200300     0.84670
O306        O  0.38844633  0.19266295  0.49777376    -0.57280
O307        O  0.27161862  0.18225680  0.49878045    -0.60580
In308      In  0.15900164  0.22040994  0.37647060     1.36870
C309        C  0.22761657  0.21455620  0.64670864     0.77120
O310        O  0.10347196  0.24938436  0.65982183    -0.61330
O311        O  0.12104642  0.30094270  0.37921933    -0.52240
C312        C  0.08992593  0.15134296  0.40871267     0.69780
O313        O  0.11161667  0.14297648  0.37330441    -0.47100
C314        C  0.22633175  0.22452911  0.44179837     0.74490
O315        O  0.20300276  0.17348444  0.65965583    -0.58960
O316        O  0.20460924  0.26607286  0.42762470    -0.49050
O317        O  0.21815473  0.25702526  0.33337996    -0.55390
C318        C  0.09819059  0.29485567  0.34343984     0.84670
O319        O  0.10063915  0.19631259  0.42537245    -0.57280
O320        O  0.21469508  0.18192825  0.42192478    -0.60580
In321      In  0.74864341  0.13509169  0.62451396     1.36870
C322        C  0.74901513  0.20266756  0.35644444     0.77120
O323        O  0.78322860  0.19453055  0.58002117    -0.61330
O324        O  0.70116667  0.17720543  0.57353904    -0.52240
C325        C  0.82487103  0.07491496  0.59468744     0.69780
O326        O  0.83053073  0.10129224  0.62894782    -0.47100
C327        C  0.67698409  0.06633283  0.65248787     0.74490
O328        O  0.79102575  0.18256715  0.34300245    -0.58960
O329        O  0.67085050  0.09230142  0.61848148    -0.49050
O330        O  0.70778418  0.18886464  0.66961219    -0.55390
C331        C  0.74074848  0.20283297  0.56013752     0.84670
O332        O  0.77891526  0.07551458  0.57870363    -0.57280
O333        O  0.72217119  0.07190374  0.66968748    -0.60580
In334      In  0.74102023  0.30588326  0.45843580     1.36870
C335        C  0.74717027  0.23894726  0.39285613     0.77120
O336        O  0.78015763  0.25106523  0.50412584    -0.61330
O337        O  0.69759478  0.26034170  0.50990860    -0.52240
C338        C  0.81673467  0.37121201  0.48651630     0.69780
O339        O  0.82182090  0.34143371  0.45433150    -0.47100
C340        C  0.66604874  0.37003516  0.43057247     0.74490
O341        O  0.78671645  0.26502354  0.40677250    -0.58960
O342        O  0.66019352  0.34046249  0.46263735    -0.49050
O343        O  0.70509637  0.24675041  0.41252503    -0.55390
C344        C  0.73902416  0.23887361  0.52381833     0.84670
O345        O  0.77105719  0.37162268  0.50206313    -0.57280
O346        O  0.71150908  0.36905428  0.41465891    -0.60580
In347      In  0.66204497  0.71907821  0.53799458     1.36870
C348        C  0.72884999  0.71439096  0.47353183     0.77120
O349        O  0.60369549  0.74994276  0.49108475    -0.61330
O350        O  0.62396194  0.79937384  0.54430890    -0.52240
C351        C  0.59237155  0.64499886  0.56149216     0.69780
O352        O  0.62305734  0.63814207  0.53065942    -0.47100
C353        C  0.72816300  0.72292910  0.60469009     0.74490
O354        O  0.70817915  0.67282768  0.48910860    -0.58960
O355        O  0.70914394  0.76474834  0.58881367    -0.49050
O356        O  0.71614589  0.75741054  0.49127162    -0.55390
C357        C  0.59893288  0.79476021  0.50933973     0.84670
O358        O  0.59570041  0.69079209  0.57856635    -0.57280
O359        O  0.71354632  0.68016660  0.58655679    -0.60580
In360      In  0.83187039  0.71742898  0.37348786     1.36870
C361        C  0.76458244  0.71390753  0.43742604     0.77120
O362        O  0.88563037  0.74964959  0.42458611    -0.61330
O363        O  0.87763253  0.79583298  0.36827126    -0.52240
C364        C  0.89499847  0.64071682  0.34587451     0.69780
O365        O  0.86337822  0.63346257  0.37605937    -0.47100
C366        C  0.76441352  0.72268567  0.64133354     0.74490
O367        O  0.79041280  0.67346775  0.42642261    -0.58960
O368        O  0.78885701  0.76363499  0.65532637    -0.49050
O369        O  0.77232772  0.75503892  0.41527833    -0.55390
C370        C  0.89622151  0.79287116  0.40572469     0.84670
O371        O  0.89614183  0.68793309  0.66521061    -0.57280
O372        O  0.77400284  0.68022624  0.32768075    -0.60580
C373        C  0.99745295  0.97078993  0.50340219    -0.02950
C374        C  0.99692365  0.46944919  0.58049450    -0.02950
C375        C  0.49894187  0.97314370  0.41576890    -0.02950
C376        C  0.49981374  0.47609247  0.66519485    -0.02950
C377        C  0.99344611  0.56646981  0.61220605    -0.09620
C378        C  0.97316860  0.51300066  0.61127650     0.06580
C379        C  0.92771271  0.50289684  0.63691254    -0.03390
C380        C  0.90507687  0.54429369  0.32729567    -0.07840
C381        C  0.92529936  0.59680872  0.65966877     0.05690
C382        C  0.97087393  0.60709684  0.63609852    -0.02860
Br383      Br  0.00501736  0.67618605  0.63477474    -0.02560
H384        H  0.02559528  0.57946415  0.59266692     0.09600
H385        H  0.86973901  0.53570286  0.34521103     0.07620
Br386      Br  0.89191939  0.43446897  0.30742723    -0.02990
C387        C  0.98858472  0.90918355  0.43705793    -0.09620
C388        C  0.96771214  0.92572983  0.47655913     0.06580
C389        C  0.92433587  0.89363120  0.49239640    -0.03390
C390        C  0.90358898  0.85090710  0.46843828    -0.07840
C391        C  0.92250229  0.83815284  0.42840666     0.05690
C392        C  0.96449087  0.86850231  0.41216411    -0.02860
Br393      Br  0.99088252  0.85518746  0.35671465    -0.02560
H394        H  0.02353616  0.92855113  0.42476686     0.09600
H395        H  0.87121218  0.82729558  0.48116497     0.07620
Br396      Br  0.88973013  0.89853106  0.54678706    -0.02990
C397        C  0.57593951  0.54854195  0.57431700    -0.09620
C398        C  0.55945029  0.60134181  0.57916491     0.06580
C399        C  0.51680796  0.61156680  0.60586602    -0.03390
C400        C  0.49666299  0.57092295  0.63160255    -0.07840
C401        C  0.51853708  0.51904272  0.63242462     0.05690
C402        C  0.55605481  0.50748091  0.60001509    -0.02860
Br403      Br  0.59008609  0.43984363  0.59239730    -0.02560
H404        H  0.60785429  0.53976906  0.55288088     0.09600
H405        H  0.46340160  0.58105354  0.65086552     0.07620
Br406      Br  0.48327720  0.67994540  0.60769698    -0.02990
C407        C  0.53235167  0.92794870  0.48718221    -0.09620
C408        C  0.52540441  0.92660931  0.44208499     0.06580
C409        C  0.54593453  0.88040079  0.42118081    -0.03390
C410        C  0.56520820  0.83737179  0.44440975    -0.07840
C411        C  0.57035647  0.83916733  0.48865291     0.05690
C412        C  0.55441122  0.88553455  0.51013058    -0.02860
Br413      Br  0.56262548  0.89434491  0.57066551    -0.02560
H414        H  0.52478351  0.96340454  0.50550530     0.09600
H415        H  0.58007022  0.80322477  0.42710724     0.07620
Br416      Br  0.55831488  0.87278713  0.36134077    -0.02990
C417        C  0.63697907  0.44693245  0.38774448    -0.09620
C418        C  0.62322542  0.40203256  0.41164208     0.06580
C419        C  0.56967281  0.38703703  0.41419179    -0.03390
C420        C  0.53189501  0.41494627  0.39077009    -0.07840
C421        C  0.54559682  0.45629892  0.36194378     0.05690
C422        C  0.59957040  0.47516219  0.36400183    -0.02860
Br423      Br  0.62968795  0.53991573  0.34063914    -0.02560
H424        H  0.67790883  0.46029164  0.38750156     0.09600
H425        H  0.49137858  0.40074567  0.39228553     0.07620
Br426      Br  0.54550703  0.32500408  0.44461556    -0.02990
C427        C  0.86438871  0.45276746  0.51419784    -0.09620
C428        C  0.86234791  0.39748098  0.50750944     0.06580
C429        C  0.90311186  0.36605408  0.52346296    -0.03390
C430        C  0.94397248  0.38944290  0.54716927    -0.07840
C431        C  0.94972494  0.44565728  0.55287654     0.05690
C432        C  0.90776893  0.47738791  0.53538658    -0.02860
Br433      Br  0.90711870  0.55445183  0.53481529    -0.02560
H434        H  0.83279534  0.47713176  0.50170140     0.09600
H435        H  0.97005553  0.36126033  0.56143172     0.07620
Br436      Br  0.90389367  0.28950894  0.51632317    -0.02990
C437        C  0.63865444  0.02774259  0.38394544    -0.09620
C438        C  0.63342000  0.03693705  0.34021262     0.06580
C439        C  0.58365595  0.02814364  0.65412392    -0.03390
C440        C  0.54125910  0.01027359  0.34520246    -0.07840
C441        C  0.54603016  0.99723325  0.38900857     0.05690
C442        C  0.59578190  0.01149935  0.40849202    -0.02860
Br443      Br  0.60797111  0.02209384  0.46847095    -0.02560
H444        H  0.67545719  0.03820648  0.40020554     0.09600
H445        H  0.50290017  0.01546361  0.66400928     0.07620
Br446      Br  0.56835313  0.04423864  0.59540548    -0.02990
C447        C  0.91165244  0.02865664  0.59738215    -0.09620
C448        C  0.86903072  0.04814894  0.57342999     0.06580
C449        C  0.87032999  0.04416791  0.52889555    -0.03390
C450        C  0.91251980  0.01976885  0.50948403    -0.07840
C451        C  0.95573632  0.99792375  0.53249273     0.05690
C452        C  0.95470754  0.00354858  0.57805166    -0.02860
Br453      Br  0.00575595  0.97793592  0.61862819    -0.02560
H454        H  0.91087536  0.03210727  0.63177280     0.09600
H455        H  0.91064494  0.01667804  0.47514119     0.07620
Br456      Br  0.81738041  0.07354936  0.49152120    -0.02990
C457        C  0.07083206  0.10424483  0.47514008    -0.09620
C458        C  0.05982458  0.10992274  0.43185427     0.06580
C459        C  0.02338935  0.07460378  0.41220144    -0.03390
C460        C  0.00244994  0.03109054  0.43504619    -0.07840
C461        C  0.01824256  0.02074908  0.47786594     0.05690
C462        C  0.05029957  0.06148774  0.49828388    -0.02860
Br463      Br  0.07314857  0.06184990  0.55676578    -0.02560
H464        H  0.09774690  0.13238605  0.49094289     0.09600
H465        H  0.97276756  0.00654878  0.41906805     0.07620
Br466      Br  0.99751864  0.08804775  0.35577581    -0.02990
C467        C  0.02079361  0.42005194  0.65186242    -0.09620
C468        C  0.02487766  0.42361181  0.60682210     0.06580
C469        C  0.05781450  0.38458197  0.58694003    -0.03270
C470        C  0.07973637  0.34320632  0.61057166    -0.07840
C471        C  0.07163244  0.33861655  0.65418093     0.05690
C472        C  0.04181104  0.37729061  0.34157496    -0.02860
Br473      Br  0.02476682  0.37066497  0.40062249    -0.02560
H474        H  0.00066533  0.44961521  0.67027706     0.09600
H475        H  0.10391018  0.31412412  0.59452093     0.07620
Br476      Br  0.07313317  0.38017832  0.52703113    -0.02990
C477        C  0.44577428  0.01095320  0.48029254    -0.09620
C478        C  0.47452932  0.02157354  0.44262353     0.06580
C479        C  0.47521979  0.07758816  0.43066952    -0.03390
C480        C  0.45127755  0.11656897  0.45597481    -0.07840
C481        C  0.42399306  0.10397904  0.49283943     0.05690
C482        C  0.42220227  0.05029540  0.50532283    -0.02860
Br483      Br  0.38747858  0.02688795  0.55605982    -0.02560
H484        H  0.44201800  0.97183638  0.49253895     0.09600
H485        H  0.45235764  0.15791531  0.44569113     0.07620
Br486      Br  0.50133979  0.11147572  0.38020482    -0.02990
C487        C  0.40810906  0.39370405  0.58663764    -0.09620
C488        C  0.42726390  0.34176887  0.59064786     0.06580
C489        C  0.47344022  0.33393473  0.61494733    -0.03390
C490        C  0.49726012  0.37695590  0.63697550    -0.07840
C491        C  0.47591018  0.42923917  0.63657694     0.05690
C492        C  0.43141493  0.43695863  0.60872591    -0.02860
Br493      Br  0.39526563  0.50349827  0.60131540    -0.02560
H494        H  0.37283474  0.40048839  0.56760121     0.09600
H495        H  0.53371931  0.36852556  0.65354658     0.07620
Br496      Br  0.50753639  0.26588902  0.61798368    -0.02990
C497        C  0.36080730  0.90469094  0.38814544    -0.09620
C498        C  0.36125518  0.89917125  0.34383480     0.06580
C499        C  0.40798233  0.91248308  0.65610442    -0.03390
C500        C  0.45105878  0.93386384  0.34565090    -0.07840
C501        C  0.45105516  0.94406529  0.39033344     0.05690
C502        C  0.40633215  0.92048335  0.41126896    -0.02860
Br503      Br  0.40970507  0.88243687  0.46441914    -0.02560
H504        H  0.32756139  0.88825803  0.40537815     0.09600
H505        H  0.48595057  0.93552199  0.66048563     0.07620
Br506      Br  0.41847369  0.89856740  0.59644780    -0.02990
C507        C  0.13926100  0.92248214  0.53600695    -0.09620
C508        C  0.12756480  0.88551090  0.56785032     0.06580
C509        C  0.07456437  0.86969275  0.57280411    -0.03390
C510        C  0.03442525  0.89738129  0.55183361    -0.07840
C511        C  0.04498722  0.94038974  0.52409005     0.05690
C512        C  0.09920363  0.94612799  0.51174421    -0.02860
Br513      Br  0.12398409  0.97289605  0.45794463    -0.02560
H514        H  0.18006494  0.93015073  0.52774973     0.09600
H515        H  0.99451500  0.88519832  0.55813459     0.07620
Br516      Br  0.05466926  0.80610478  0.60265042    -0.02990
C517        C  0.08869836  0.52515738  0.48909016    -0.09620
C518        C  0.13397273  0.53936255  0.51283152     0.06580
C519        C  0.13388862  0.53127181  0.55713583    -0.03390
C520        C  0.08930634  0.50947761  0.57632209    -0.07840
C521        C  0.04240109  0.49517371  0.55327627     0.05690
C522        C  0.04360957  0.50294749  0.50796857    -0.02860
Br523      Br  0.99112179  0.48203300  0.46606720    -0.02560
H524        H  0.08858203  0.53096563  0.45490116     0.09600
H525        H  0.09079802  0.50474183  0.61059706     0.07620
Br526      Br  0.19150849  0.55169370  0.59471612    -0.02990
C527        C  0.42264013  0.56116165  0.41530649    -0.09620
C528        C  0.37295362  0.53604964  0.41459297     0.06580
C529        C  0.36686640  0.48699801  0.39306647    -0.03390
C530        C  0.40827891  0.46738258  0.36879537    -0.07840
C531        C  0.45648288  0.49657295  0.36353264     0.05690
C532        C  0.46435855  0.54156520  0.39141151    -0.02860
Br533      Br  0.52891683  0.58167228  0.73203038    -0.02560
H534        H  0.42870214  0.59783254  0.43346287     0.09600
H535        H  0.40171053  0.42860885  0.35419588     0.07620
Br536      Br  0.30388630  0.44368948  0.39727970    -0.02990
In537      In  0.25225508  0.62908397  0.79156557     1.36870
C538        C  0.24547785  0.69418785  0.72500041     0.77120
O539        O  0.21479141  0.68882851  0.83349770    -0.61330
O540        O  0.29603775  0.67322553  0.84457603    -0.52240
C541        C  0.17842212  0.56640551  0.82436752     0.69780
O542        O  0.17332835  0.58737794  0.78801965    -0.47100
C543        C  0.32818411  0.56473431  0.76662889     0.74490
O544        O  0.20547665  0.67027905  0.73942807    -0.58960
O545        O  0.33480478  0.59957811  0.79553188    -0.49050
O546        O  0.28799929  0.68476639  0.74441069    -0.55390
C547        C  0.25545980  0.69772444  0.85597454     0.84670
O548        O  0.22351755  0.57296402  0.84127149    -0.57280
O549        O  0.28134103  0.56020060  0.75252543    -0.60580
In550      In  0.24632402  0.79944516  0.95815968     1.36870
C551        C  0.24394754  0.73039109  0.68866719     0.77120
O552        O  0.21133853  0.74157962  0.91158341    -0.61330
O553        O  0.29403954  0.75688241  0.90855462    -0.52240
C554        C  0.17129898  0.85882317  0.92409695     0.69780
O555        O  0.16524203  0.83355407  0.95847658    -0.47100
C556        C  0.31763076  0.86837110  0.98936892     0.74490
O557        O  0.20288945  0.75386051  0.67603695    -0.58960
O558        O  0.32341173  0.84272632  0.95509667    -0.49050
O559        O  0.28495795  0.74138896  0.00154190    -0.55390
C560        C  0.25400098  0.73284394  0.89302179     0.84670
O561        O  0.21757423  0.85792639  0.90978461    -0.57280
O562        O  0.27293081  0.86183124  0.00604475    -0.60580
In563      In  0.32901926  0.22048945  0.87801442     1.36870
C564        C  0.26352410  0.21483847  0.94384326     0.77120
O565        O  0.39526331  0.25025897  0.92060044    -0.61330
O566        O  0.36365996  0.30330489  0.87459360    -0.52240
C567        C  0.39349978  0.14689624  0.84736571     0.69780
O568        O  0.36821495  0.14052547  0.88137086    -0.47100
C569        C  0.26193670  0.22454279  0.81217835     0.74490
O570        O  0.28470699  0.17370112  0.92872856    -0.58960
O571        O  0.28553776  0.26581096  0.82641689    -0.49050
O572        O  0.27555842  0.25764358  0.92530572    -0.55390
C573        C  0.39558355  0.29690494  0.90533574     0.84670
O574        O  0.38844578  0.19266321  0.83110641    -0.57280
O575        O  0.27161861  0.18225693  0.83211401    -0.60580
In576      In  0.15900176  0.22040930  0.70980402     1.36870
C577        C  0.22761704  0.21455665  0.98004200     0.77120
O578        O  0.10347238  0.24938483  0.99315508    -0.61330
O579        O  0.12104632  0.30094185  0.71255289    -0.52240
C580        C  0.08992580  0.15134285  0.74204619     0.69780
O581        O  0.11161670  0.14297594  0.70663805    -0.47100
C582        C  0.22633179  0.22452888  0.77513177     0.74490
O583        O  0.20300309  0.17348491  0.99298905    -0.58960
O584        O  0.20460963  0.26607261  0.76095772    -0.49050
O585        O  0.21815381  0.25702492  0.66671257    -0.55390
C586        C  0.09818967  0.29485424  0.67677379     0.84670
O587        O  0.10063920  0.19631251  0.75870584    -0.57280
O588        O  0.21469484  0.18192781  0.75525855    -0.60580
In589      In  0.74864504  0.13509318  0.95784714     1.36870
C590        C  0.74901576  0.20266794  0.68977768     0.77120
O591        O  0.78323046  0.19453159  0.91335407    -0.61330
O592        O  0.70116831  0.17720731  0.90687251    -0.52240
C593        C  0.82487204  0.07491565  0.92802080     0.69780
O594        O  0.83053222  0.10129351  0.96228086    -0.47100
C595        C  0.67698587  0.06633411  0.98582058     0.74490
O596        O  0.79102638  0.18256797  0.67633527    -0.58960
O597        O  0.67085207  0.09230328  0.95181450    -0.49050
O598        O  0.70778550  0.18886522  0.00294580    -0.55390
C599        C  0.74075022  0.20283439  0.89347069     0.84670
O600        O  0.77891620  0.07551541  0.91203716    -0.57280
O601        O  0.72217309  0.07190463  0.00302006    -0.60580
In602      In  0.74102152  0.30588425  0.79176877     1.36870
C603        C  0.74717113  0.23894791  0.72618924     0.77120
O604        O  0.78015910  0.25106593  0.83745849    -0.61330
O605        O  0.69759647  0.26034347  0.84324213    -0.52240
C606        C  0.81673615  0.37121306  0.81984907     0.69780
O607        O  0.82182230  0.34143455  0.78766438    -0.47100
C608        C  0.66604957  0.37003567  0.76390555     0.74490
O609        O  0.78671725  0.26502478  0.74010503    -0.58960
O610        O  0.66019459  0.34046298  0.79597044    -0.49050
O611        O  0.70509750  0.24675070  0.74585861    -0.55390
C612        C  0.73902581  0.23887493  0.85715146     0.84670
O613        O  0.77105866  0.37162392  0.83539586    -0.57280
O614        O  0.71150989  0.36905507  0.74799193    -0.60580
In615      In  0.66204507  0.71907882  0.87132764     1.36870
C616        C  0.72885027  0.71439161  0.80686513     0.77120
O617        O  0.60369542  0.74994347  0.82441809    -0.61330
O618        O  0.62396210  0.79937447  0.87764223    -0.52240
C619        C  0.59237196  0.64499915  0.89482475     0.69780
O620        O  0.62305766  0.63814270  0.86399191    -0.47100
C621        C  0.72816267  0.72292932  0.93802332     0.74490
O622        O  0.70817947  0.67282835  0.82244192    -0.58960
O623        O  0.70914392  0.76474868  0.92214687    -0.49050
O624        O  0.71614601  0.75741123  0.82460476    -0.55390
C625        C  0.59893293  0.79476091  0.84267311     0.84670
O626        O  0.59570070  0.69079223  0.91189921    -0.57280
O627        O  0.71354593  0.68016690  0.91988995    -0.60580
In628      In  0.83187111  0.71742895  0.70682162     1.36870
C629        C  0.76458289  0.71390803  0.77075950     0.77120
O630        O  0.88563124  0.74964908  0.75791995    -0.61330
O631        O  0.87763351  0.79583285  0.70160531    -0.52240
C632        C  0.89499860  0.64071624  0.67920853     0.69780
O633        O  0.86337843  0.63346243  0.70939351    -0.47100
C634        C  0.76441299  0.72268570  0.97466685     0.74490
O635        O  0.79041329  0.67346817  0.75975635    -0.58960
O636        O  0.78885639  0.76363498  0.98865981    -0.49050
O637        O  0.77232828  0.75503930  0.74861167    -0.55390
C638        C  0.89622254  0.79287073  0.73905872     0.84670
O639        O  0.89614121  0.68793350  0.99854376    -0.57280
O640        O  0.77400351  0.68022601  0.66101470    -0.60580
C641        C  0.99745384  0.97078994  0.83673595    -0.02950
C642        C  0.99692492  0.46945019  0.91382773    -0.02950
C643        C  0.49894192  0.97314415  0.74910207    -0.02950
C644        C  0.49981456  0.47609252  0.99852727    -0.02950
C645        C  0.99344663  0.56647091  0.94553913    -0.09620
C646        C  0.97316951  0.51300158  0.94460966     0.06580
C647        C  0.92771356  0.50289754  0.97024556    -0.03390
C648        C  0.90507597  0.54429290  0.66063006    -0.07840
C649        C  0.92529956  0.59680941  0.99300177     0.05690
C650        C  0.97087397  0.60709791  0.96943137    -0.02860
Br651      Br  0.00501632  0.67618771  0.96810677    -0.02560
H652        H  0.02559573  0.57946539  0.92599999     0.09600
H653        H  0.86973814  0.53570253  0.67854558     0.07620
Br654      Br  0.89191714  0.43446821  0.64076180    -0.02990
C655        C  0.98858524  0.90918384  0.77039143    -0.09620
C656        C  0.96771364  0.92572914  0.80989323     0.06580
C657        C  0.92433861  0.89362936  0.82573119    -0.03390
C658        C  0.90359177  0.85090516  0.80177314    -0.07840
C659        C  0.92250371  0.83815211  0.76174083     0.05690
C660        C  0.96449113  0.86850271  0.74549764    -0.02860
Br661      Br  0.99088065  0.85518986  0.69004718    -0.02560
H662        H  0.02353591  0.92855222  0.75809978     0.09600
H663        H  0.87121585  0.82729287  0.81450035     0.07620
Br664      Br  0.88973417  0.89852834  0.88012246    -0.02990
C665        C  0.57594040  0.54854214  0.90764950    -0.09620
C666        C  0.55945091  0.60134193  0.91249736     0.06580
C667        C  0.51680858  0.61156681  0.93919844    -0.03390
C668        C  0.49666386  0.57092300  0.96493505    -0.07840
C669        C  0.51853805  0.51904280  0.96575714     0.05690
C670        C  0.55605580  0.50748105  0.93334761    -0.02860
Br671      Br  0.59008706  0.43984375  0.92572979    -0.02560
H672        H  0.60785523  0.53976936  0.88621340     0.09600
H673        H  0.46340237  0.58105358  0.98419788     0.07620
Br674      Br  0.48327742  0.67994522  0.94102923    -0.02990
C675        C  0.53235171  0.92794944  0.82051546    -0.09620
C676        C  0.52540432  0.92660980  0.77541825     0.06580
C677        C  0.54593431  0.88040115  0.75451418    -0.03390
C678        C  0.56520780  0.83737219  0.77774322    -0.07840
C679        C  0.57035649  0.83916805  0.82198634     0.05690
C680        C  0.55441169  0.88553555  0.84346389    -0.02860
Br681      Br  0.56262775  0.89434701  0.90399860    -0.02560
H682        H  0.52478351  0.96340536  0.83883843     0.09600
H683        H  0.58006955  0.80322500  0.76044076     0.07620
Br684      Br  0.55831493  0.87278727  0.69467420    -0.02990
C685        C  0.63697946  0.44693254  0.72107735    -0.09620
C686        C  0.62322602  0.40203283  0.74497521     0.06580
C687        C  0.56967345  0.38703725  0.74752522    -0.03390
C688        C  0.53189547  0.41494625  0.72410352    -0.07840
C689        C  0.54559704  0.45629870  0.69527696     0.05690
C690        C  0.59957062  0.47516205  0.69733472    -0.02860
Br691      Br  0.62968807  0.53991544  0.67397167    -0.02560
H692        H  0.67790919  0.46029179  0.72083422     0.09600
H693        H  0.49137905  0.40074565  0.72561921     0.07620
Br694      Br  0.54550791  0.32500460  0.77794949    -0.02990
C695        C  0.86439041  0.45276854  0.84753043    -0.09620
C696        C  0.86234947  0.39748203  0.84084215     0.06580
C697        C  0.90311333  0.36605511  0.85679581    -0.03390
C698        C  0.94397392  0.38944392  0.88050218    -0.07840
C699        C  0.94972644  0.44565831  0.88620944     0.05690
C700        C  0.90777059  0.47738896  0.86871926    -0.02860
Br701      Br  0.90712047  0.55445287  0.86814787    -0.02560
H702        H  0.83279713  0.47713287  0.83503387     0.09600
H703        H  0.97005686  0.36126133  0.89476474     0.07620
Br704      Br  0.90389497  0.28950994  0.84965622    -0.02990
C705        C  0.63865465  0.02774272  0.71727882    -0.09620
C706        C  0.63342031  0.03693708  0.67354598     0.06580
C707        C  0.58365684  0.02814751  0.98745748    -0.03390
C708        C  0.54125935  0.01027390  0.67853572    -0.07840
C709        C  0.54603030  0.99723360  0.72234183     0.05690
C710        C  0.59578201  0.01149966  0.74182536    -0.02860
Br711      Br  0.60797107  0.02209450  0.80180426    -0.02560
H712        H  0.67545738  0.03820660  0.73353896     0.09600
H713        H  0.50290065  0.01547052  0.99734486     0.07620
Br714      Br  0.56835267  0.04424456  0.92873965    -0.02990
C715        C  0.91165318  0.02865695  0.93071573    -0.09620
C716        C  0.86903130  0.04814876  0.90676350     0.06580
C717        C  0.87033000  0.04416637  0.86222912    -0.03390
C718        C  0.91251973  0.01976705  0.84281775    -0.07840
C719        C  0.95573680  0.99792309  0.86582650     0.05690
C720        C  0.95470819  0.00354857  0.91138539    -0.02860
Br721      Br  0.00575651  0.97793617  0.95196210    -0.02560
H722        H  0.91087633  0.03210827  0.96510635     0.09600
H723        H  0.91064457  0.01667544  0.80847495     0.07620
Br724      Br  0.81737990  0.07354650  0.82485456    -0.02990
C725        C  0.07083138  0.10424553  0.80847374    -0.09620
C726        C  0.05982411  0.10992304  0.76518788     0.06580
C727        C  0.02338885  0.07460404  0.74553514    -0.03390
C728        C  0.00244949  0.03109088  0.76838000    -0.07840
C729        C  0.01824236  0.02074953  0.81119970     0.05690
C730        C  0.05029900  0.06148850  0.83161762    -0.02860
Br731      Br  0.07314780  0.06185120  0.89009958    -0.02560
H732        H  0.09774609  0.13238692  0.82427651     0.09600
H733        H  0.97276716  0.00654897  0.75240195     0.07620
Br734      Br  0.99751822  0.08804778  0.68910945    -0.02990
C735        C  0.02079439  0.42005266  0.98519566    -0.09620
C736        C  0.02487876  0.42361273  0.94015538     0.06580
C737        C  0.05781570  0.38458292  0.92027336    -0.03270
C738        C  0.07973731  0.34320709  0.94390498    -0.07840
C739        C  0.07163302  0.33861711  0.98751419     0.05690
C740        C  0.04180936  0.37728861  0.67490920    -0.02860
Br741      Br  0.02476612  0.37066329  0.73395696    -0.02560
H742        H  0.00066604  0.44961591  0.00361027     0.09600
H743        H  0.10391119  0.31412493  0.92785429     0.07620
Br744      Br  0.07313479  0.38017952  0.86036454    -0.02990
C745        C  0.44577403  0.01095368  0.81362547    -0.09620
C746        C  0.47452934  0.02157402  0.77595661     0.06580
C747        C  0.47522005  0.07758867  0.76400265    -0.03390
C748        C  0.45127782  0.11656949  0.78930793    -0.07840
C749        C  0.42399295  0.10397953  0.82617235     0.05690
C750        C  0.42220170  0.05029584  0.83865556    -0.02860
Br751      Br  0.38747643  0.02688828  0.88939180    -0.02560
H752        H  0.44201774  0.97183675  0.82587191     0.09600
H753        H  0.45235818  0.15791589  0.77902437     0.07620
Br754      Br  0.50134036  0.11147621  0.71353805    -0.02990
C755        C  0.40811040  0.39370416  0.91996969    -0.09620
C756        C  0.42726485  0.34176889  0.92398034     0.06580
C757        C  0.47344100  0.33393467  0.94828002    -0.03390
C758        C  0.49726095  0.37695588  0.97030812    -0.07840
C759        C  0.47591119  0.42923923  0.96990928     0.05690
C760        C  0.43141632  0.43695876  0.94205784    -0.02860
Br761      Br  0.39526744  0.50349852  0.93464657    -0.02560
H762        H  0.37283630  0.40048856  0.90093302     0.09600
H763        H  0.53371999  0.36852550  0.98687940     0.07620
Br764      Br  0.50753682  0.26588881  0.95131681    -0.02990
C765        C  0.36080747  0.90469137  0.72147823    -0.09620
C766        C  0.36125573  0.89917119  0.67716764     0.06580
C767        C  0.40798573  0.91248830  0.98943646    -0.03390
C768        C  0.45105923  0.93386401  0.67898398    -0.07840
C769        C  0.45105530  0.94406573  0.72366649     0.05690
C770        C  0.40633217  0.92048388  0.74460190    -0.02860
Br771      Br  0.40970483  0.88243743  0.79775211    -0.02560
H772        H  0.32756142  0.88825864  0.73871088     0.09600
H773        H  0.48595405  0.93552679  0.99381872     0.07620
Br774      Br  0.41847841  0.89857162  0.92978016    -0.02990
C775        C  0.13926369  0.92248603  0.86933912    -0.09620
C776        C  0.12756901  0.88551550  0.90118330     0.06580
C777        C  0.07456918  0.86969605  0.90613813    -0.03390
C778        C  0.03442886  0.89738283  0.88516762    -0.07840
C779        C  0.04498915  0.94039104  0.85742345     0.05690
C780        C  0.09920516  0.94613034  0.84507667    -0.02860
Br781      Br  0.12398370  0.97289779  0.79127630    -0.02560
H782        H  0.18006730  0.93015524  0.86108118     0.09600
H783        H  0.99451910  0.88519876  0.89146918     0.07620
Br784      Br  0.05467704  0.80610807  0.93598576    -0.02990
C785        C  0.08870049  0.52515900  0.82242419    -0.09620
C786        C  0.13397459  0.53936428  0.84616588     0.06580
C787        C  0.13389004  0.53127332  0.89047016    -0.03390
C788        C  0.08930758  0.50947893  0.90965607    -0.07840
C789        C  0.04240263  0.49517490  0.88660988     0.05690
C790        C  0.04361159  0.50294882  0.84130222    -0.02860
Br791      Br  0.99112440  0.48203406  0.79940046    -0.02560
H792        H  0.08858450  0.53096734  0.78823520     0.09600
H793        H  0.09079889  0.50474303  0.94393103     0.07620
Br794      Br  0.19150959  0.55169498  0.92805084    -0.02990
C795        C  0.42264132  0.56116145  0.74864049    -0.09620
C796        C  0.37295473  0.53604965  0.74792729     0.06580
C797        C  0.36686697  0.48699822  0.72640058    -0.03390
C798        C  0.40827911  0.46738268  0.70212912    -0.07840
C799        C  0.45648319  0.49657280  0.69686616     0.05690
C800        C  0.46435932  0.54156500  0.72474505    -0.02860
Br801      Br  0.52891774  0.58167140  0.06536354    -0.02560
H802        H  0.42870367  0.59783225  0.76679691     0.09600
H803        H  0.40171034  0.42860907  0.68752954     0.07620
Br804      Br  0.30388656  0.44369019  0.73061395    -0.02990
loop_ 
_geom_bond_atom_site_label_1 
_geom_bond_atom_site_label_2 
_geom_bond_distance 
_geom_bond_site_symmetry_2 
_ccdc_geom_bond_type 
In1           O3   2.218       .  S
In1           O4   2.259       .  S
In1          O12   2.227       .  S
In1           O6   2.241       .  S
In1           O8   2.268       .  S
In1           O9   2.230       .  S
In1          O10   2.230       .  S
In1          O13   2.247       .  S
C2            O8   1.259       .  A
C2           O10   1.256       .  A
C2           C15   1.460       .  S
O3           C11   1.256       .  A
O4           C11   1.260       .  A
C5           O12   1.260       .  A
C5            O6   1.264       .  A
C5          C250   1.482       .  S
C7            O9   1.261       .  A
C7           O13   1.263       .  A
C7          C260   1.478       .  S
C11          C24   1.454       .  S
In14         O16   2.216       .  S
In14         O17   2.257       .  S
In14         O25   2.236       .  S
In14         O19   2.236       .  S
In14         O22   2.221       .  S
In14         O23   2.224       .  S
In14         O26   2.248       .  S
In14        O289   2.264       .  S
C15          O21   1.262       .  A
C15         O559   1.257       .  A
O16          C24   1.257       .  A
O17          C24   1.261       .  A
C18          O25   1.262       .  A
C18          O19   1.264       .  A
C18         C240   1.482       .  S
C20          O22   1.261       .  A
C20          O26   1.263       .  A
C20         C498   1.483       .  S
O21        In550   2.264   1_554  S
O23         C283   1.257       .  A
In27         O29   2.245       .  S
In27         O30   2.238       .  S
In27         O38   2.237       .  S
In27         O32   2.247       .  S
In27         O34   2.279       .  S
In27         O35   2.265       .  S
In27         O36   2.232       .  S
In27         O39   2.232       .  S
C28          O34   1.261       .  A
C28          O36   1.256       .  A
C28          C41   1.466       .  S
O29          C37   1.263       .  A
O30          C37   1.263       .  A
C31          O38   1.263       .  A
C31          O32   1.263       .  A
C31         C213   1.491       .  S
C33          O35   1.260       .  A
C33          O39   1.257       .  A
C33          C46   1.461       .  S
C37         C220   1.481       .  S
In40         O43   2.246       .  S
In40         O51   2.226       .  S
In40         O45   2.261       .  S
In40         O48   2.258       .  S
In40         O49   2.223       .  S
In40         O52   2.225       .  S
In40        O578   2.224   1_554  S
In40        O583   2.273   1_554  S
C41          O47   1.265       .  A
C41         O317   1.258       .  A
O42        In308   2.224       .  S
O42         C318   1.262       .  A
O43          C50   1.263       .  A
C44          O51   1.261       .  A
C44          O45   1.265       .  A
C44         C190   1.477       .  S
C46          O48   1.263       .  A
C46          O52   1.259       .  A
O47        In308   2.273       .  S
O49         C577   1.258   1_554  A
C50         O578   1.262   1_554  A
C50         C739   1.473   1_554  S
In53         O55   2.223       .  S
In53         O56   2.262       .  S
In53         O64   2.217       .  S
In53         O58   2.255       .  S
In53         O61   2.232       .  S
In53         O62   2.224       .  S
In53         O65   2.230       .  S
In53        O328   2.257       .  S
C54          O60   1.261       .  A
C54         O598   1.256       .  A
C54          C67   1.457       .  S
O55          C63   1.257       .  A
O56          C63   1.260       .  A
C57          O64   1.261       .  A
C57          O58   1.263       .  A
C57         C180   1.478       .  S
C59          O61   1.262       .  A
C59          O65   1.264       .  A
C59         C438   1.482       .  S
O60        In589   2.257   1_554  S
O62         C322   1.256       .  A
C63          C76   1.458       .  S
In66         O68   2.223       .  S
In66         O69   2.270       .  S
In66         O77   2.249       .  S
In66         O71   2.224       .  S
In66         O73   2.255       .  S
In66         O74   2.240       .  S
In66         O75   2.232       .  S
In66         O78   2.230       .  S
C67          O73   1.258       .  A
C67          O75   1.257       .  A
O68          C76   1.254       .  A
O69          C76   1.260       .  A
C70          O77   1.263       .  A
C70          O71   1.261       .  A
C70         C160   1.466       .  S
C72          O74   1.261       .  A
C72          O78   1.263       .  A
C72         C150   1.478       .  S
In79         O81   2.221       .  S
In79         O82   2.249       .  S
In79         O90   2.232       .  S
In79         O84   2.245       .  S
In79         O86   2.265       .  S
In79         O87   2.269       .  S
In79         O88   2.232       .  S
In79         O91   2.230       .  S
C80          O86   1.260       .  A
C80          O88   1.256       .  A
C80          C93   1.461       .  S
O81          C89   1.263       .  A
O82          C89   1.263       .  A
C83          O90   1.262       .  A
C83          O84   1.263       .  A
C83         C130   1.478       .  S
C85          O87   1.260       .  A
C85          O91   1.256       .  A
C85          C98   1.461       .  S
C89         C143   1.482       .  S
In92         O94   2.227       .  S
In92         O95   2.268       .  S
In92         O97   2.258       .  S
In92         O99   2.260       .  S
In92        O101   2.229       .  S
In92        O104   2.227   1_554  S
In92        O639   2.234   1_554  S
In92        O636   2.268   1_554  S
C93          O99   1.262       .  A
C93         O101   1.259       .  A
O94         C102   1.262       .  A
O95         C102   1.263       .  A
C96          O97   1.262       .  A
C96         O639   1.261   1_554  A
C96         C649   1.484   1_554  S
C98         O100   1.261       .  A
C98         O372   1.256       .  A
O100       In360   2.268       .  S
C102        C123   1.477       .  S
O103       In360   2.234       .  S
O103        C364   1.261       .  A
O104        C634   1.256       .  A
C105        C120   1.577       .  S
C105        C183   1.567       .  S
C105        C193   1.575   1_665  S
C105        C243   1.569   1_655  S
C106        C110   1.583       .  S
C106        C163   1.573       .  S
C106        C200   1.586   1_655  S
C106        C253   1.576   1_655  S
C107        C140   1.582       .  S
C107        C173   1.582       .  S
C107        C210   1.608   1_565  S
C107        C233   1.604       .  S
C108        C133   1.564       .  S
C108        C223   1.579       .  S
C108        C421   1.573       .  S
C108        C531   1.581       .  S
C109        C110   1.424       .  A
C109        C114   1.394       .  A
C109        H116   1.074   1_655  S
C110        C111   1.435       .  A
C111        C380   1.406       .  A
C111       Br386   1.928       .  S
C112        C647   1.406       .  A
C112        C649   1.402       .  A
C112        H117   1.083   1_556  S
C113        C364   1.484       .  S
C113        C114   1.402       .  A
C113        C380   1.402       .  A
C114       Br115   1.919   1_655  S
Br118       C647   1.928       .  S
C119        C120   1.417       .  A
C119        C124   1.405       .  A
C119        H126   1.080   1_655  S
C120        C121   1.446       .  A
C121        C122   1.394       .  A
C121       Br128   1.935       .  S
C122        C123   1.389       .  A
C122        H127   1.085       .  S
C123        C124   1.400       .  A
C124       Br125   1.903       .  S
C129        C130   1.398       .  A
C129        C134   1.401       .  A
C129        H136   1.084       .  S
C130        C131   1.403       .  A
C131        C132   1.396       .  A
C131       Br138   1.921       .  S
C132        C133   1.418       .  A
C132        H137   1.077       .  S
C133        C134   1.434       .  A
C134       Br135   1.925       .  S
C139        C140   1.424       .  A
C139        C144   1.404       .  A
C139        H146   1.075       .  S
C140        C141   1.433       .  A
C141        C142   1.393       .  A
C141       Br148   1.918       .  S
C142        C143   1.394       .  A
C142        H147   1.084       .  S
C143        C144   1.405       .  A
C144       Br145   1.920       .  S
C149        C150   1.396       .  A
C149        C154   1.399       .  A
C149        H156   1.084       .  S
C150        C151   1.405       .  A
C151        C152   1.396       .  A
C151       Br158   1.922       .  S
C152        C153   1.420       .  A
C152        H157   1.082       .  S
C153        C644   1.573   1_554  S
C153        C154   1.439       .  A
C154       Br155   1.931       .  S
C159        C160   1.396       .  A
C159        C164   1.407       .  A
C159        H166   1.084       .  S
C160        C161   1.396       .  A
C161        C162   1.385       .  A
C161       Br168   1.925       .  S
C162        C163   1.420       .  A
C162        H167   1.069       .  S
C163        C164   1.440       .  A
C164       Br165   1.926       .  S
C169        C170   1.398       .  A
C169        C174   1.397       .  A
C169        H176   1.084       .  S
C170        C595   1.482   1_554  S
C170        C707   1.406   1_554  A
C171        C438   1.406       .  A
C171        C440   1.398       .  A
C171       Br178   1.924       .  S
C172        C173   1.419   1_545  A
C172        C707   1.398   1_554  A
C172        H713   1.077   1_554  S
C173        C174   1.432   1_565  A
C174       Br175   1.920       .  S
H177        C440   1.077       .  S
C179        C180   1.402       .  A
C179        C184   1.410       .  A
C179        H186   1.083       .  S
C180        C181   1.402       .  A
C181        C182   1.386       .  A
C181       Br188   1.926       .  S
C182        C183   1.421   1_545  A
C182        H187   1.081       .  S
C183        C184   1.437   1_565  A
C184       Br185   1.921   1_645  S
C189        C190   1.392       .  A
C189        C194   1.394       .  A
C189        H196   1.084       .  S
C190        C191   1.401       .  A
C191        C192   1.407       .  A
C191       Br198   1.913   1_455  S
C192        C193   1.423       .  A
C192        H197   1.079   1_455  S
C193        C194   1.434       .  A
C194       Br195   1.917       .  S
C199        C200   1.423       .  A
C199        C472   1.402       .  A
C199        H206   1.075       .  S
C200        C201   1.439       .  A
C201        C202   1.394       .  A
C201       Br208   1.929       .  S
C202        C203   1.393       .  A
C202        H207   1.084       .  S
C203        C318   1.473       .  S
C203        C472   1.399       .  A
C204        C735   1.402   1_554  A
C204        C739   1.399   1_554  A
C204       Br205   1.917       .  S
C209        C210   1.422       .  A
C209        C214   1.401       .  A
C209        H216   1.056   1_545  S
C210        C211   1.451       .  A
C211        C212   1.404       .  A
C211       Br218   1.922       .  S
C212        C213   1.392       .  A
C212        H217   1.084       .  S
C213        C214   1.400       .  A
C214       Br215   1.921       .  S
C219        C220   1.398       .  A
C219        C224   1.399       .  A
C219        H226   1.084       .  S
C220        C221   1.404       .  A
C221        C222   1.399       .  A
C221       Br228   1.921       .  S
C222        C223   1.422       .  A
C222        H227   1.078       .  S
C223        C224   1.432       .  A
C224       Br225   1.924       .  S
C229        C230   1.397       .  A
C229        C234   1.404       .  A
C229        H236   1.084       .  S
C230        C556   1.483   1_554  S
C230        C767   1.401   1_554  A
C231        C498   1.401       .  A
C231        C500   1.395       .  A
C231       Br238   1.926       .  S
C232        C233   1.424       .  A
C232        C767   1.395   1_554  A
C232        H773   1.065   1_554  S
C233        C234   1.438       .  A
C234       Br235   1.927       .  S
H237        C500   1.065       .  S
C239        C240   1.397       .  A
C239        C244   1.400       .  A
C239        H246   1.084       .  S
C240        C241   1.405       .  A
C241        C242   1.398       .  A
C241       Br248   1.914       .  S
C242        C243   1.412       .  A
C242        H247   1.073   1_455  S
C243        C244   1.438       .  A
C244       Br245   1.930       .  S
C249        C250   1.398       .  A
C249        C254   1.403       .  A
C249        H256   1.084       .  S
C250        C251   1.407       .  A
C251        C252   1.393       .  A
C251       Br258   1.924       .  S
C252        C253   1.422       .  A
C252        H257   1.083       .  S
C253        C254   1.438       .  A
C254       Br255   1.921   1_455  S
C259        C260   1.397       .  A
C259        C264   1.398       .  A
C259        H266   1.084       .  S
C260        C261   1.401       .  A
C261        C262   1.399       .  A
C261       Br268   1.920       .  S
C262        C263   1.424       .  A
C262        H267   1.079       .  S
C263        C644   1.581   1_554  S
C263        C264   1.430       .  A
C264       Br801   1.914       .  S
Br265       C532   1.914       .  S
In269       O271   2.218       .  S
In269       O272   2.259       .  S
In269       O280   2.227       .  S
In269       O274   2.241       .  S
In269       O276   2.268       .  S
In269       O277   2.230       .  S
In269       O278   2.230       .  S
In269       O281   2.247       .  S
C270        O276   1.259       .  A
C270        O278   1.256       .  A
C270        C283   1.460       .  S
O271        C279   1.256       .  A
O272        C279   1.260       .  A
C273        O280   1.260       .  A
C273        O274   1.264       .  A
C273        C518   1.482       .  S
C275        O277   1.261       .  A
C275        O281   1.263       .  A
C275        C528   1.478       .  S
C279        C292   1.454       .  S
In282       O284   2.216       .  S
In282       O285   2.257       .  S
In282       O293   2.236       .  S
In282       O287   2.236       .  S
In282       O557   2.264       .  S
In282       O290   2.221       .  S
In282       O291   2.224       .  S
In282       O294   2.248       .  S
C283        O289   1.262       .  A
O284        C292   1.257       .  A
O285        C292   1.261       .  A
C286        O293   1.262       .  A
C286        O287   1.264       .  A
C286        C508   1.482       .  S
C288        O290   1.261       .  A
C288        O294   1.263       .  A
C288        C766   1.483       .  S
O291        C551   1.257       .  A
In295       O297   2.245       .  S
In295       O298   2.238       .  S
In295       O306   2.237       .  S
In295       O300   2.247       .  S
In295       O302   2.279       .  S
In295       O303   2.265       .  S
In295       O304   2.232       .  S
In295       O307   2.232       .  S
C296        O302   1.261       .  A
C296        O304   1.256       .  A
C296        C309   1.466       .  S
O297        C305   1.263       .  A
O298        C305   1.263       .  A
C299        O306   1.263       .  A
C299        O300   1.263       .  A
C299        C481   1.491       .  S
C301        O303   1.260       .  A
C301        O307   1.257       .  A
C301        C314   1.461       .  S
C305        C488   1.481       .  S
In308       O311   2.246       .  S
In308       O319   2.226       .  S
In308       O313   2.261       .  S
In308       O316   2.258       .  S
In308       O317   2.223       .  S
In308       O320   2.225       .  S
C309        O315   1.265       .  A
C309        O585   1.258       .  A
O310       In576   2.224       .  S
O310        C586   1.262       .  A
O311        C318   1.263       .  A
C312        O319   1.261       .  A
C312        O313   1.265       .  A
C312        C458   1.477       .  S
C314        O316   1.263       .  A
C314        O320   1.259       .  A
O315       In576   2.273       .  S
In321       O323   2.223       .  S
In321       O324   2.262       .  S
In321       O332   2.217       .  S
In321       O326   2.255       .  S
In321       O596   2.257       .  S
In321       O329   2.232       .  S
In321       O330   2.224       .  S
In321       O333   2.230       .  S
C322        O328   1.261       .  A
C322        C335   1.457       .  S
O323        C331   1.257       .  A
O324        C331   1.260       .  A
C325        O332   1.261       .  A
C325        O326   1.263       .  A
C325        C448   1.478       .  S
C327        O329   1.262       .  A
C327        O333   1.264       .  A
C327        C706   1.482       .  S
O330        C590   1.256       .  A
C331        C344   1.458       .  S
In334       O336   2.223       .  S
In334       O337   2.270       .  S
In334       O345   2.249       .  S
In334       O339   2.224       .  S
In334       O341   2.255       .  S
In334       O342   2.240       .  S
In334       O343   2.232       .  S
In334       O346   2.230       .  S
C335        O341   1.258       .  A
C335        O343   1.257       .  A
O336        C344   1.254       .  A
O337        C344   1.260       .  A
C338        O345   1.263       .  A
C338        O339   1.261       .  A
C338        C428   1.466       .  S
C340        O342   1.261       .  A
C340        O346   1.263       .  A
C340        C418   1.478       .  S
In347       O349   2.221       .  S
In347       O350   2.249       .  S
In347       O358   2.232       .  S
In347       O352   2.245       .  S
In347       O354   2.265       .  S
In347       O355   2.269       .  S
In347       O356   2.232       .  S
In347       O359   2.230       .  S
C348        O354   1.260       .  A
C348        O356   1.256       .  A
C348        C361   1.461       .  S
O349        C357   1.263       .  A
O350        C357   1.263       .  A
C351        O358   1.262       .  A
C351        O352   1.263       .  A
C351        C398   1.478       .  S
C353        O355   1.260       .  A
C353        O359   1.256       .  A
C353        C366   1.461       .  S
C357        C411   1.482       .  S
In360       O362   2.227       .  S
In360       O363   2.268       .  S
In360       O365   2.258       .  S
In360       O367   2.260       .  S
In360       O369   2.229       .  S
In360       O372   2.227       .  S
C361        O367   1.262       .  A
C361        O369   1.259       .  A
O362        C370   1.262       .  A
O363        C370   1.263       .  A
C364        O365   1.262       .  A
C366        O368   1.261       .  A
C366        O640   1.256       .  A
O368       In628   2.268       .  S
C370        C391   1.477       .  S
O371       In628   2.234       .  S
O371        C632   1.261       .  A
C373        C388   1.577       .  S
C373        C451   1.567       .  S
C373        C461   1.575   1_665  S
C373        C511   1.569   1_655  S
C374        C378   1.583       .  S
C374        C431   1.573       .  S
C374        C468   1.586   1_655  S
C374        C521   1.576   1_655  S
C375        C408   1.582       .  S
C375        C441   1.582       .  S
C375        C478   1.608   1_565  S
C375        C501   1.604       .  S
C376        C401   1.564       .  S
C376        C689   1.573       .  S
C376        C491   1.579       .  S
C376        C799   1.581       .  S
C377        C378   1.424       .  A
C377        C382   1.394       .  A
C377        H384   1.074   1_655  S
C378        C379   1.435       .  A
C379        C648   1.406       .  A
C379       Br654   1.928       .  S
C380        H385   1.083       .  S
C381        C632   1.484       .  S
C381        C648   1.402       .  A
C381        C382   1.402       .  A
C382       Br383   1.919   1_655  S
C387        C388   1.417       .  A
C387        C392   1.405       .  A
C387        H394   1.080   1_655  S
C388        C389   1.446       .  A
C389        C390   1.394       .  A
C389       Br396   1.935       .  S
C390        C391   1.389       .  A
C390        H395   1.085       .  S
C391        C392   1.400       .  A
C392       Br393   1.903       .  S
C397        C398   1.398       .  A
C397        C402   1.401       .  A
C397        H404   1.084       .  S
C398        C399   1.403       .  A
C399        C400   1.396       .  A
C399       Br406   1.921       .  S
C400        C401   1.418       .  A
C400        H405   1.077       .  S
C401        C402   1.434       .  A
C402       Br403   1.925       .  S
C407        C408   1.424       .  A
C407        C412   1.404       .  A
C407        H414   1.075       .  S
C408        C409   1.433       .  A
C409        C410   1.393       .  A
C409       Br416   1.918       .  S
C410        C411   1.394       .  A
C410        H415   1.084       .  S
C411        C412   1.405       .  A
C412       Br413   1.920       .  S
C417        C418   1.396       .  A
C417        C422   1.399       .  A
C417        H424   1.084       .  S
C418        C419   1.405       .  A
C419        C420   1.396       .  A
C419       Br426   1.922       .  S
C420        C421   1.420       .  A
C420        H425   1.082       .  S
C421        C422   1.439       .  A
C422       Br423   1.931       .  S
C427        C428   1.396       .  A
C427        C432   1.407       .  A
C427        H434   1.084       .  S
C428        C429   1.396       .  A
C429        C430   1.385       .  A
C429       Br436   1.925       .  S
C430        C431   1.420       .  A
C430        H435   1.069       .  S
C431        C432   1.440       .  A
C432       Br433   1.926       .  S
C437        C438   1.398       .  A
C437        C442   1.397       .  A
C437        H444   1.084       .  S
C439        C706   1.406       .  A
C439        C708   1.398       .  A
C439       Br446   1.924       .  S
C440        C441   1.419   1_545  A
C441        C442   1.432   1_565  A
C442       Br443   1.920       .  S
H445        C708   1.077       .  S
C447        C448   1.402       .  A
C447        C452   1.410       .  A
C447        H454   1.083       .  S
C448        C449   1.402       .  A
C449        C450   1.386       .  A
C449       Br456   1.926       .  S
C450        C451   1.421   1_545  A
C450        H455   1.081       .  S
C451        C452   1.437   1_565  A
C452       Br453   1.921   1_645  S
C457        C458   1.392       .  A
C457        C462   1.394       .  A
C457        H464   1.084       .  S
C458        C459   1.401       .  A
C459        C460   1.407       .  A
C459       Br466   1.913   1_455  S
C460        C461   1.423       .  A
C460        H465   1.079   1_455  S
C461        C462   1.434       .  A
C462       Br463   1.917       .  S
C467        C468   1.423       .  A
C467        C740   1.402       .  A
C467        H474   1.075       .  S
C468        C469   1.439       .  A
C469        C470   1.394       .  A
C469       Br476   1.929       .  S
C470        C471   1.393       .  A
C470        H475   1.084       .  S
C471        C586   1.473       .  S
C471        C740   1.399       .  A
C472       Br473   1.917       .  S
C477        C478   1.422       .  A
C477        C482   1.401       .  A
C477        H484   1.056   1_545  S
C478        C479   1.451       .  A
C479        C480   1.404       .  A
C479       Br486   1.922       .  S
C480        C481   1.392       .  A
C480        H485   1.084       .  S
C481        C482   1.400       .  A
C482       Br483   1.921       .  S
C487        C488   1.398       .  A
C487        C492   1.399       .  A
C487        H494   1.084       .  S
C488        C489   1.404       .  A
C489        C490   1.399       .  A
C489       Br496   1.921       .  S
C490        C491   1.422       .  A
C490        H495   1.078       .  S
C491        C492   1.432       .  A
C492       Br493   1.924       .  S
C497        C498   1.397       .  A
C497        C502   1.404       .  A
C497        H504   1.084       .  S
C499        C766   1.401       .  A
C499        C768   1.395       .  A
C499       Br506   1.926       .  S
C500        C501   1.424       .  A
C501        C502   1.438       .  A
C502       Br503   1.927       .  S
H505        C768   1.065       .  S
C507        C508   1.397       .  A
C507        C512   1.400       .  A
C507        H514   1.084       .  S
C508        C509   1.405       .  A
C509        C510   1.398       .  A
C509       Br516   1.914       .  S
C510        C511   1.412       .  A
C510        H515   1.073   1_455  S
C511        C512   1.438       .  A
C512       Br513   1.930       .  S
C517        C518   1.398       .  A
C517        C522   1.403       .  A
C517        H524   1.084       .  S
C518        C519   1.407       .  A
C519        C520   1.393       .  A
C519       Br526   1.924       .  S
C520        C521   1.422       .  A
C520        H525   1.083       .  S
C521        C522   1.438       .  A
C522       Br523   1.921   1_455  S
C527        C528   1.397       .  A
C527        C532   1.398       .  A
C527        H534   1.084       .  S
C528        C529   1.401       .  A
C529        C530   1.399       .  A
C529       Br536   1.920       .  S
C530        C531   1.424       .  A
C530        H535   1.079       .  S
C531        C532   1.430       .  A
Br533       C800   1.914       .  S
In537       O539   2.218       .  S
In537       O540   2.259       .  S
In537       O548   2.227       .  S
In537       O542   2.241       .  S
In537       O544   2.268       .  S
In537       O545   2.230       .  S
In537       O546   2.230       .  S
In537       O549   2.247       .  S
C538        O544   1.259       .  A
C538        O546   1.256       .  A
C538        C551   1.460       .  S
O539        C547   1.256       .  A
O540        C547   1.260       .  A
C541        O548   1.260       .  A
C541        O542   1.264       .  A
C541        C786   1.482       .  S
C543        O545   1.261       .  A
C543        O549   1.263       .  A
C543        C796   1.478       .  S
C547        C560   1.454       .  S
In550       O552   2.216       .  S
In550       O553   2.257       .  S
In550       O561   2.236       .  S
In550       O555   2.236       .  S
In550       O558   2.221       .  S
In550       O559   2.224   1_556  S
In550       O562   2.248   1_556  S
C551        O557   1.262       .  A
O552        C560   1.257       .  A
O553        C560   1.261       .  A
C554        O561   1.262       .  A
C554        O555   1.264       .  A
C554        C776   1.482       .  S
C556        O558   1.261       .  A
C556        O562   1.263   1_556  A
In563       O565   2.245       .  S
In563       O566   2.238       .  S
In563       O574   2.237       .  S
In563       O568   2.247       .  S
In563       O570   2.279       .  S
In563       O571   2.265       .  S
In563       O572   2.232       .  S
In563       O575   2.232       .  S
C564        O570   1.261       .  A
C564        O572   1.256       .  A
C564        C577   1.466       .  S
O565        C573   1.263       .  A
O566        C573   1.263       .  A
C567        O574   1.263       .  A
C567        O568   1.263       .  A
C567        C749   1.491       .  S
C569        O571   1.260       .  A
C569        O575   1.257       .  A
C569        C582   1.461       .  S
C573        C756   1.481       .  S
In576       O579   2.246       .  S
In576       O587   2.226       .  S
In576       O581   2.261       .  S
In576       O584   2.258       .  S
In576       O585   2.223       .  S
In576       O588   2.225       .  S
C577        O583   1.265       .  A
O579        C586   1.263       .  A
C580        O587   1.261       .  A
C580        O581   1.265       .  A
C580        C726   1.477       .  S
C582        O584   1.263       .  A
C582        O588   1.259       .  A
In589       O591   2.223       .  S
In589       O592   2.262       .  S
In589       O600   2.217       .  S
In589       O594   2.255       .  S
In589       O597   2.232       .  S
In589       O598   2.224   1_556  S
In589       O601   2.230   1_556  S
C590        O596   1.261       .  A
C590        C603   1.457       .  S
O591        C599   1.257       .  A
O592        C599   1.260       .  A
C593        O600   1.261       .  A
C593        O594   1.263       .  A
C593        C716   1.478       .  S
C595        O597   1.262       .  A
C595        O601   1.264   1_556  A
C599        C612   1.458       .  S
In602       O604   2.223       .  S
In602       O605   2.270       .  S
In602       O613   2.249       .  S
In602       O607   2.224       .  S
In602       O609   2.255       .  S
In602       O610   2.240       .  S
In602       O611   2.232       .  S
In602       O614   2.230       .  S
C603        O609   1.258       .  A
C603        O611   1.257       .  A
O604        C612   1.254       .  A
O605        C612   1.260       .  A
C606        O613   1.263       .  A
C606        O607   1.261       .  A
C606        C696   1.466       .  S
C608        O610   1.261       .  A
C608        O614   1.263       .  A
C608        C686   1.478       .  S
In615       O617   2.221       .  S
In615       O618   2.249       .  S
In615       O626   2.232       .  S
In615       O620   2.245       .  S
In615       O622   2.265       .  S
In615       O623   2.269       .  S
In615       O624   2.232       .  S
In615       O627   2.230       .  S
C616        O622   1.260       .  A
C616        O624   1.256       .  A
C616        C629   1.461       .  S
O617        C625   1.263       .  A
O618        C625   1.263       .  A
C619        O626   1.262       .  A
C619        O620   1.263       .  A
C619        C666   1.478       .  S
C621        O623   1.260       .  A
C621        O627   1.256       .  A
C621        C634   1.461       .  S
C625        C679   1.482       .  S
In628       O630   2.227       .  S
In628       O631   2.268       .  S
In628       O633   2.258       .  S
In628       O635   2.260       .  S
In628       O637   2.229       .  S
In628       O640   2.227       .  S
C629        O635   1.262       .  A
C629        O637   1.259       .  A
O630        C638   1.262       .  A
O631        C638   1.263       .  A
C632        O633   1.262       .  A
C634        O636   1.261       .  A
C638        C659   1.477       .  S
C641        C656   1.577       .  S
C641        C719   1.567       .  S
C641        C729   1.575   1_665  S
C641        C779   1.569   1_655  S
C642        C646   1.583       .  S
C642        C699   1.573       .  S
C642        C736   1.586   1_655  S
C642        C789   1.576   1_655  S
C643        C676   1.582       .  S
C643        C709   1.582       .  S
C643        C746   1.608   1_565  S
C643        C769   1.604       .  S
C644        C669   1.564       .  S
C644        C759   1.579       .  S
C645        C646   1.424       .  A
C645        C650   1.394       .  A
C645        H652   1.074   1_655  S
C646        C647   1.435       .  A
C648        H653   1.083       .  S
C649        C650   1.402       .  A
C650       Br651   1.919   1_655  S
C655        C656   1.417       .  A
C655        C660   1.405       .  A
C655        H662   1.080   1_655  S
C656        C657   1.446       .  A
C657        C658   1.394       .  A
C657       Br664   1.935       .  S
C658        C659   1.389       .  A
C658        H663   1.085       .  S
C659        C660   1.400       .  A
C660       Br661   1.903       .  S
C665        C666   1.398       .  A
C665        C670   1.401       .  A
C665        H672   1.084       .  S
C666        C667   1.403       .  A
C667        C668   1.396       .  A
C667       Br674   1.921       .  S
C668        C669   1.418       .  A
C668        H673   1.077       .  S
C669        C670   1.434       .  A
C670       Br671   1.925       .  S
C675        C676   1.424       .  A
C675        C680   1.404       .  A
C675        H682   1.075       .  S
C676        C677   1.433       .  A
C677        C678   1.393       .  A
C677       Br684   1.918       .  S
C678        C679   1.394       .  A
C678        H683   1.084       .  S
C679        C680   1.405       .  A
C680       Br681   1.920       .  S
C685        C686   1.396       .  A
C685        C690   1.399       .  A
C685        H692   1.084       .  S
C686        C687   1.405       .  A
C687        C688   1.396       .  A
C687       Br694   1.922       .  S
C688        C689   1.420       .  A
C688        H693   1.082       .  S
C689        C690   1.439       .  A
C690       Br691   1.931       .  S
C695        C696   1.396       .  A
C695        C700   1.407       .  A
C695        H702   1.084       .  S
C696        C697   1.396       .  A
C697        C698   1.385       .  A
C697       Br704   1.925       .  S
C698        C699   1.420       .  A
C698        H703   1.069       .  S
C699        C700   1.440       .  A
C700       Br701   1.926       .  S
C705        C706   1.398       .  A
C705        C710   1.397       .  A
C705        H712   1.084       .  S
C707       Br714   1.924       .  S
C708        C709   1.419   1_545  A
C709        C710   1.432   1_565  A
C710       Br711   1.920       .  S
C715        C716   1.402       .  A
C715        C720   1.410       .  A
C715        H722   1.083       .  S
C716        C717   1.402       .  A
C717        C718   1.386       .  A
C717       Br724   1.926       .  S
C718        C719   1.421   1_545  A
C718        H723   1.081       .  S
C719        C720   1.437   1_565  A
C720       Br721   1.921   1_645  S
C725        C726   1.392       .  A
C725        C730   1.394       .  A
C725        H732   1.084       .  S
C726        C727   1.401       .  A
C727        C728   1.407       .  A
C727       Br734   1.913   1_455  S
C728        C729   1.423       .  A
C728        H733   1.079   1_455  S
C729        C730   1.434       .  A
C730       Br731   1.917       .  S
C735        C736   1.423       .  A
C735        H742   1.075   1_556  S
C736        C737   1.439       .  A
C737        C738   1.394       .  A
C737       Br744   1.929       .  S
C738        C739   1.393       .  A
C738        H743   1.084       .  S
C740       Br741   1.917       .  S
C745        C746   1.422       .  A
C745        C750   1.401       .  A
C745        H752   1.056   1_545  S
C746        C747   1.451       .  A
C747        C748   1.404       .  A
C747       Br754   1.922       .  S
C748        C749   1.392       .  A
C748        H753   1.084       .  S
C749        C750   1.400       .  A
C750       Br751   1.921       .  S
C755        C756   1.398       .  A
C755        C760   1.399       .  A
C755        H762   1.084       .  S
C756        C757   1.404       .  A
C757        C758   1.399       .  A
C757       Br764   1.921       .  S
C758        C759   1.422       .  A
C758        H763   1.078       .  S
C759        C760   1.432       .  A
C760       Br761   1.924       .  S
C765        C766   1.397       .  A
C765        C770   1.404       .  A
C765        H772   1.084       .  S
C767       Br774   1.926       .  S
C768        C769   1.424       .  A
C769        C770   1.438       .  A
C770       Br771   1.927       .  S
C775        C776   1.397       .  A
C775        C780   1.400       .  A
C775        H782   1.084       .  S
C776        C777   1.405       .  A
C777        C778   1.398       .  A
C777       Br784   1.914       .  S
C778        C779   1.412       .  A
C778        H783   1.073   1_455  S
C779        C780   1.438       .  A
C780       Br781   1.930       .  S
C785        C786   1.398       .  A
C785        C790   1.403       .  A
C785        H792   1.084       .  S
C786        C787   1.407       .  A
C787        C788   1.393       .  A
C787       Br794   1.924       .  S
C788        C789   1.422       .  A
C788        H793   1.083       .  S
C789        C790   1.438       .  A
C790       Br791   1.921   1_455  S
C795        C796   1.397       .  A
C795        C800   1.398       .  A
C795        H802   1.084       .  S
C796        C797   1.401       .  A
C797        C798   1.399       .  A
C797       Br804   1.920       .  S
C798        C799   1.424       .  A
C798        H803   1.079       .  S
C799        C800   1.430       .  A
