geometry optimzed in LAMMPS
_audit_creation_date              2020-11-30 
_audit_creation_method            'lammps2cif' 
_symmetry_space_group_name_H-M    'P1' 
_symmetry_Int_Tables_number       1 
_symmetry_cell_setting            triclinic 
loop_ 
_symmetry_equiv_pos_as_xyz 
  x,y,z 
_cell_length_a                    38.7804185 
_cell_length_b                    39.43568702671447 
_cell_length_c                    51.35239948710483 
_cell_angle_alpha                 90.63138361601095 
_cell_angle_beta                  90.18298916897437 
_cell_angle_gamma                 119.18186684743118 
loop_ 
_atom_site_label 
_atom_site_type_symbol 
_atom_site_fract_x 
_atom_site_fract_y 
_atom_site_fract_z 
_atom_site_charge 
O1          O  0.25934360  0.06238440  0.76607993    -0.54800
C2          C  0.23083666  0.15071689  0.77533746     0.77900
O3          O  0.16365269  0.05496361  0.71278839    -0.55900
C4          C  0.24247595  0.02687254  0.75921435     0.77800
C5          C  0.13539987  0.02972534  0.78638655     0.80200
Cd6        Cd  0.20240855  0.07260654  0.75396887     1.37500
O7          O  0.19457295  0.12604181  0.77410305    -0.54800
O8          O  0.16936463  0.03506835  0.79247412    -0.53600
C9          C  0.19271361  0.07434542  0.69817286     0.80200
O10         O  0.13220244  0.04399296  0.76510682    -0.55900
O11         O  0.25434796  0.13968822  0.76667476    -0.54400
O12         O  0.20763309  0.01282306  0.75038875    -0.54400
O13         O  0.22595512  0.09370593  0.70930477    -0.53600
O14         O  0.28671424  0.34009672  0.76934369    -0.54800
C15         C  0.24703949  0.44724883  0.75883267     0.77900
O16         O  0.35380560  0.43382527  0.76144216    -0.55900
C17         C  0.25070061  0.31983889  0.77524324     0.77800
C18         C  0.27999510  0.38388044  0.69649232     0.80200
Cd19       Cd  0.28165888  0.39681412  0.75253420     1.37500
O20         O  0.22893192  0.41191600  0.76527184    -0.54800
O21         O  0.24952010  0.36872665  0.71044364    -0.53600
C22         C  0.34970415  0.43435931  0.78593854     0.80200
O23         O  0.31244264  0.40499745  0.70830574    -0.55900
O24         O  0.28137106  0.45966463  0.74984431    -0.54400
O25         O  0.22865537  0.33423163  0.76983110    -0.54400
O26         O  0.31482328  0.41967932  0.79436590    -0.53600
C27         C  0.48303917  0.44776820  0.84724521     0.89500
C28         C  0.01007096  0.45293490  0.83181597    -0.50700
C29         C  0.01563185  0.48201316  0.81523510     0.12500
C30         C  0.50045921  0.99661765  0.82447225     0.23400
C31         C  0.49341323  0.48505445  0.86260925    -0.51400
C32         C  0.50053179  0.00139088  0.85443573     0.12600
C33         C  0.44674441  0.43983031  0.83092233    -0.51000
C34         C  0.45204920  0.46985354  0.81546971     0.13100
H35         H  0.02829090  0.43901754  0.83184828     0.17700
H36         H  0.01133483  0.02897913  0.81602586     0.03400
H37         H  0.49600870  0.48695127  0.88368617     0.18000
H38         H  0.41941722  0.41228590  0.83114065     0.17800
O39         O  0.07222263  0.24217467  0.89157058    -0.54800
C40         C  0.15683452  0.20426332  0.87168098     0.77900
O41         O  0.07143786  0.16297104  0.94486842    -0.55900
C42         C  0.03493572  0.22178901  0.89261261     0.77800
C43         C  0.04070416  0.11232897  0.87497159     0.80200
Cd44       Cd  0.08466596  0.18682468  0.89942218     1.37500
O45         O  0.14005343  0.22457871  0.86807660    -0.54800
O46         O  0.04745876  0.14304296  0.86333015    -0.53600
C47         C  0.09605067  0.19484244  0.95552288     0.80200
O48         O  0.05229782  0.11593220  0.89846283    -0.55900
O49         O  0.14223993  0.17884156  0.88907741    -0.54400
O50         O  0.02114847  0.18576376  0.89583267    -0.54400
O51         O  0.11615308  0.22254120  0.94035092    -0.53600
O52         O  0.34093520  0.23912707  0.86241897    -0.54800
C53         C  0.44637078  0.23369043  0.88446513     0.77900
O54         O  0.44069525  0.34178291  0.89132830    -0.55900
C55         C  0.32755049  0.26181415  0.86854995     0.77800
C56         C  0.38646660  0.25927655  0.94656296     0.80200
Cd57       Cd  0.39942011  0.27098211  0.89189883     1.37500
O58         O  0.40983191  0.21571365  0.87862251    -0.54800
O59         O  0.36860197  0.23135703  0.93055202    -0.53600
C60         C  0.44661839  0.34283305  0.86698565     0.80200
O61         O  0.40938526  0.29227045  0.93714759    -0.55900
O62         O  0.46040308  0.26827485  0.89271353    -0.54400
O63         O  0.34557729  0.28623946  0.88658302    -0.54400
O64         O  0.43286117  0.31069669  0.85485685    -0.53600
C65         C  0.24043191  0.23549925  0.81977897     0.00600
C66         C  0.45521592  0.43963967  0.14334089     0.89500
C67         C  0.43451941  0.45475439  0.16164008    -0.50700
C68         C  0.46017286  0.48787965  0.17496949     0.12500
C69         C  0.99669769  0.01717220  0.17412224     0.23400
C70         C  0.48061924  0.47390332  0.12590621    -0.51400
C71         C  0.99212084  0.02114207  0.14459906     0.12600
C72         C  0.48446130  0.43442657  0.16056757    -0.51000
C73         C  0.01917166  0.47302386  0.17674622     0.13100
H74         H  0.40264777  0.44093654  0.16349232     0.17700
H75         H  0.01856123  0.04432920  0.18417805     0.03400
H76         H  0.47807381  0.47253532  0.10477880     0.18000
H77         H  0.48479790  0.40711770  0.16205890     0.17800
O78         O  0.17910925  0.40344351  0.21961912    -0.54800
C79         C  0.06491781  0.31434359  0.20030372     0.77900
O80         O  0.07424635  0.38492757  0.26921991    -0.55900
C81         C  0.19412472  0.43939689  0.22480941     0.77800
C82         C  0.08513967  0.43485613  0.20144930     0.80200
Cd83       Cd  0.10992001  0.38786668  0.22894154     1.37500
O84         O  0.05244458  0.33822214  0.20365863    -0.54800
O85         O  0.10518820  0.42110449  0.19085522    -0.53600
C86         C  0.09378810  0.37537967  0.28428141     0.80200
O87         O  0.07754770  0.42822586  0.22546107    -0.55900
O88         O  0.09819441  0.32366854  0.21050693    -0.54400
O89         O  0.17042326  0.45119092  0.23151501    -0.54400
O90         O  0.12013682  0.36986217  0.27380771    -0.53600
O91         O  0.38670741  0.16560014  0.21028716    -0.54800
C92         C  0.29233701  0.05445957  0.22371827     0.77900
O93         O  0.42416426  0.07880195  0.22626107    -0.55900
C94         C  0.42076129  0.17526245  0.20165074     0.77800
C95         C  0.38278478  0.11519874  0.28747503     0.80200
Cd96       Cd  0.37672012  0.10420687  0.23116674     1.37500
O97         O  0.30797005  0.09083462  0.22083964    -0.54800
O98         O  0.37852400  0.13825779  0.27267562    -0.53600
C99         C  0.40676135  0.05869210  0.20606673     0.80200
O100        O  0.38673876  0.08856612  0.27635169    -0.55900
O101        O  0.31556619  0.04160196  0.22910597    -0.54400
O102        O  0.43437119  0.15284887  0.20697446    -0.54400
O103        O  0.37665042  0.06019557  0.19803168    -0.53600
C104        C  0.49829887  0.25212551  0.15514383     0.00600
O105        O  0.43452467  0.27831271  0.09565909    -0.54800
C106        C  0.29598362  0.25728560  0.08112527     0.77900
O107        O  0.43285659  0.34302290  0.07769407    -0.55900
C108        C  0.41599506  0.24752825  0.10836988     0.77800
C109        C  0.38986298  0.28048102  0.01943258     0.80200
Cd110      Cd  0.37781159  0.27811161  0.07466400     1.37500
O111        O  0.30572135  0.23157383  0.07592560    -0.54800
O112        O  0.37658818  0.24859778  0.03130029    -0.53600
C113        C  0.41932215  0.35267025  0.09706657     0.80200
O114        O  0.39743384  0.31013004  0.03300214    -0.55900
O115        O  0.32374925  0.29179936  0.08343158    -0.54400
O116        O  0.37915215  0.22814664  0.10408227    -0.54400
O117        O  0.38547890  0.32822320  0.10524048    -0.53600
O118        O  0.10248317  0.23992402  0.11086928    -0.54800
C119        C  0.18279542  0.20373319  0.08419256     0.77900
O120        O  0.05460420  0.11877988  0.09585061    -0.55900
C121        C  0.06528537  0.22440604  0.11279163     0.77800
C122        C  0.08527615  0.17714547  0.02939224     0.80200
Cd123      Cd  0.10114772  0.18478623  0.08508659     1.37500
O124        O  0.17320716  0.22993750  0.08791535    -0.48500
O125        O  0.10892453  0.20947880  0.03996771    -0.53600
C126        C  0.06866389  0.11923492  0.11824516     0.80200
O127        O  0.06748073  0.14889618  0.04456709    -0.55900
O128        O  0.15486830  0.16926246  0.08167545    -0.54400
O129        O  0.04533012  0.19296636  0.10024666    -0.54400
O130        O  0.09974646  0.14982426  0.12503073    -0.53600
C131        C  0.48002536  0.01955944  0.47050517     0.89500
C132        C  0.01648699  0.03984568  0.49932039    -0.50700
C133        C  0.03040844  0.02144865  0.51507613     0.12500
C134        C  0.00397793  0.47305333  0.49894975     0.23400
C135        C  0.49470534  0.47995048  0.45653884    -0.51400
C136        C  0.00466573  0.46283463  0.46994842     0.12600
C137        C  0.44996469  0.48150766  0.48860479    -0.51000
C138        C  0.46144800  0.46303590  0.50596930     0.13100
H139        H  0.03074028  0.07124845  0.49774804     0.17700
H140        H  0.01403163  0.45749321  0.51215711     0.03400
H141        H  0.49517681  0.47705804  0.43555619     0.18000
H142        H  0.42047502  0.47826677  0.48835285     0.17800
O143        O  0.20314354  0.04773354  0.53278832    -0.54800
C144        C  0.24251470  0.17696177  0.56078033     0.77900
O145        O  0.14066030  0.03769250  0.56978822    -0.55900
C146        C  0.23586221  0.04903600  0.53690927     0.77800
C147        C  0.21445280  0.08775926  0.62503710     0.80200
Cd148      Cd  0.20793844  0.09310306  0.56898131     1.37500
O149        O  0.20727230  0.15610651  0.56799635    -0.54800
O150        O  0.24377309  0.09834755  0.61026340    -0.53600
C151        C  0.12631084  0.05177924  0.55374908     0.80200
O152        O  0.18175905  0.07813149  0.61400604    -0.55900
O153        O  0.26139990  0.15908830  0.55576769    -0.54400
O154        O  0.25661808  0.07152505  0.55521733    -0.54400
O155        O  0.14948720  0.08552844  0.54534548    -0.53600
O156        O  0.23741471  0.37589675  0.55050004    -0.54800
C157        C  0.25908423  0.28200966  0.56301532     0.77900
O158        O  0.36567774  0.40354830  0.55956868    -0.55900
C159        C  0.25847570  0.40943508  0.54130999     0.77800
C160        C  0.30250367  0.38465321  0.62325904     0.80200
Cd161      Cd  0.29363564  0.36671833  0.56733846     1.37500
O162        O  0.29547354  0.30386589  0.56774214    -0.54800
O163        O  0.26916503  0.36363357  0.61260737    -0.53600
C164        C  0.36284768  0.39330518  0.53582501     0.80200
O165        O  0.33176006  0.39816047  0.60820275    -0.55900
O166        O  0.23882043  0.29894639  0.56001603    -0.54400
O167        O  0.29522861  0.42379504  0.54478658    -0.54400
O168        O  0.32872400  0.36920585  0.52737625    -0.53600
C169        C  0.24443420  0.47948189  0.49376190     0.00600
O170        O  0.33430228  0.04487661  0.43309676    -0.54800
C171        C  0.44251147  0.18831029  0.42419094     0.77900
O172        O  0.42796860  0.07222709  0.42176360    -0.55900
C173        C  0.31602177  0.05966394  0.44466202     0.77800
C174        C  0.38332435  0.09644288  0.36077573     0.80200
Cd175      Cd  0.38973303  0.10602738  0.41703154     1.37500
O176        O  0.45487773  0.16433276  0.42053014    -0.54800
O177        O  0.37557009  0.12041254  0.37232605    -0.53600
C178        C  0.43525465  0.08068556  0.44577728     0.80200
O179        O  0.39181022  0.07570715  0.37512893    -0.55900
O180        O  0.40533884  0.17438735  0.42491064    -0.54400
O181        O  0.32950762  0.09577510  0.44159973    -0.54400
O182        O  0.42268880  0.10186623  0.45595837    -0.53600
O183        O  0.05881775  0.29835103  0.42594409    -0.54800
C184        C  0.15762286  0.42314670  0.44283757     0.77900
O185        O  0.07806758  0.37745539  0.36711455    -0.55900
C186        C  0.02292880  0.29028003  0.42363107     0.77800
C187        C  0.04636570  0.40993044  0.42866738     0.80200
Cd188      Cd  0.08609348  0.36889062  0.41352516     1.37500
O189        O  0.14182308  0.38687765  0.44696140    -0.54800
O190        O  0.05378865  0.39031097  0.44491167    -0.53600
C191        C  0.10132697  0.36628303  0.35836285     0.80200
O192        O  0.05651768  0.40965970  0.40527412    -0.55900
O193        O  0.14236066  0.43287175  0.42469461    -0.54400
O194        O  0.01716213  0.31805249  0.41777245    -0.54400
O195        O  0.11873756  0.35651490  0.37516448    -0.53600
C196        C  0.46991361  0.23050747  0.42661856    -0.13400
C197        C  0.50945676  0.24539060  0.42761416    -0.28600
H198        H  0.45731497  0.24979825  0.42634085     0.15600
H199        H  0.95931058  0.24793393  0.42604337     0.16200
C200        C  0.21279748  0.44715916  0.47601818    -0.13400
C201        C  0.19082650  0.45382584  0.45853808    -0.28600
H202        H  0.20702149  0.41744607  0.47807254     0.15600
H203        H  0.19696084  0.48354622  0.45591155     0.16200
C204        C  0.28198533  0.03648532  0.46184289    -0.13400
C205        C  0.27154094  0.99946159  0.46813867    -0.28600
H206        H  0.26692658  0.05089034  0.47038476     0.15600
H207        H  0.28642085  0.98571998  0.45828529     0.16200
C208        C  0.26251150  0.46099697  0.51160027    -0.13400
C209        C  0.24087309  0.43002604  0.52688997    -0.28600
H210        H  0.29425036  0.47210256  0.51088284     0.15600
H211        H  0.20900434  0.41779318  0.52734048     0.16200
C212        C  0.26129691  0.21996411  0.55927788    -0.13400
C213        C  0.24047748  0.23898009  0.56177129    -0.28600
H214        H  0.29310393  0.23636830  0.55685385     0.15600
H215        H  0.20851893  0.22244773  0.56318975     0.16200
C216        C  0.24940166  0.02584940  0.52129658    -0.13400
C217        C  0.22540509  0.99733135  0.50447509    -0.28600
H218        H  0.27982427  0.03221441  0.52370842     0.15600
H219        H  0.19473559  0.99055039  0.50278798     0.16200
C220        C  0.45577725  0.06555468  0.46179800    -0.13400
C221        C  0.46708333  0.04079331  0.45229543    -0.28600
H222        H  0.45864582  0.07225941  0.48255195     0.15600
H223        H  0.46432607  0.03385558  0.43158460     0.16200
C224        C  0.02762300  0.43289194  0.43638370    -0.13400
C225        C  0.01979957  0.43663597  0.46138651    -0.28600
H226        H  0.02235871  0.44852600  0.42108042     0.15600
H227        H  0.02663788  0.42157636  0.47640195     0.16200
C228        C  0.43347777  0.43645892  0.52540000    -0.13400
C229        C  0.39643122  0.41065247  0.51789380    -0.28600
H230        H  0.44196563  0.44098042  0.54584012     0.15600
H231        H  0.38939385  0.40559444  0.49721119     0.16200
C232        C  0.06888694  0.04436108  0.52876993    -0.13400
C233        C  0.08499587  0.02896755  0.54460314    -0.28600
H234        H  0.08575027  0.07509390  0.52434221     0.15600
H235        H  0.06861148  0.99874932  0.55008951     0.16200
C236        C  0.22419769  0.21220356  0.08236682    -0.13400
C237        C  0.25464011  0.24843945  0.08423557    -0.28600
H238        H  0.22965103  0.18802666  0.07878643     0.15600
H239        H  0.24916462  0.27260076  0.08782802     0.16200
C240        C  0.00783024  0.22016918  0.13637970    -0.13400
C241        C  0.04623340  0.24127156  0.12960225    -0.28600
H242        H  0.99056775  0.19137063  0.12766975     0.15600
H243        H  0.06461940  0.27031941  0.13743049     0.16200
C244        C  0.47369713  0.26071033  0.13561987    -0.13400
C245        C  0.43636044  0.23569803  0.12766080    -0.28600
H246        H  0.48897979  0.28897293  0.12645656     0.15600
H247        H  0.42024211  0.20675577  0.13558844     0.16200
C248        C  0.38236002  0.11907713  0.31613112    -0.13400
C249        C  0.38327542  0.09274614  0.33211509    -0.28600
H250        H  0.38058013  0.14375348  0.32421290     0.15600
H251        H  0.38550818  0.06833885  0.32398981     0.16200
C252        C  0.47383617  0.21556242  0.17106287    -0.13400
C253        C  0.44341529  0.21077483  0.18621470    -0.28600
H254        H  0.48166982  0.19258219  0.17031119     0.15600
H255        H  0.43436750  0.23286765  0.18661601     0.16200
C256        C  0.08629692  0.37222987  0.31257150    -0.13400
C257        C  0.10796733  0.36519876  0.33003437    -0.28600
H258        H  0.06292362  0.37770675  0.31935368     0.15600
H259        H  0.13124206  0.35940384  0.32352762     0.16200
C260        C  0.25286799  0.50475138  0.22620061    -0.13400
C261        C  0.23715854  0.46592715  0.22383811    -0.28600
H262        H  0.23021620  0.04156469  0.22082038     0.15600
H263        H  0.25634452  0.45319108  0.22180899     0.16200
C264        C  0.04175064  0.27743154  0.18553059    -0.13400
C265        C  0.01145546  0.27138823  0.16952152    -0.28600
H266        H  0.04982825  0.25480808  0.18762432     0.15600
H267        H  0.00429125  0.29464656  0.16725898     0.16200
C268        C  0.01361633  0.05649072  0.12919147    -0.13400
C269        C  0.04916813  0.08595557  0.13570504    -0.28600
H270        H  0.00010008  0.05718155  0.11075328     0.15600
H271        H  0.06380515  0.08580754  0.15372406     0.16200
C272        C  0.42817635  0.40352395  0.12833757    -0.13400
C273        C  0.44304826  0.38999368  0.11005223    -0.28600
H274        H  0.39685444  0.38806724  0.13279871     0.15600
H275        H  0.47423705  0.40618103  0.10526415     0.16200
C276        C  0.45300767  0.03280761  0.19713625    -0.13400
C277        C  0.41956807  0.03402701  0.19200381    -0.28600
H278        H  0.46775401  0.52778641  0.20756978     0.15600
H279        H  0.40063504  0.01692856  0.17592604     0.16200
C280        C  0.04598712  0.46836540  0.19496112    -0.13400
C281        C  0.06926781  0.45483212  0.18554695    -0.28600
H282        H  0.04262545  0.47083504  0.21576488     0.15600
H283        H  0.07255614  0.45371725  0.16457114     0.16200
C284        C  0.38072437  0.25359154  0.97480279    -0.13400
C285        C  0.39644479  0.28408911  0.99127323    -0.28600
H286        H  0.36262243  0.22438796  0.98204553     0.15600
H287        H  0.41332018  0.31331051  0.98375488     0.16200
C288        C  0.29377749  0.26153383  0.85486487    -0.13400
C289        C  0.27318563  0.23500481  0.83631515    -0.28600
H290        H  0.28677268  0.28448139  0.85929151     0.15600
H291        H  0.28027828  0.21181158  0.83306540     0.16200
C292        C  0.10133368  0.20007993  0.98410241    -0.13400
C293        C  0.07896523  0.17197320  0.00086575    -0.28600
H294        H  0.12426799  0.22797186  0.99152219     0.15600
H295        H  0.05622654  0.14394502  0.99348696     0.16200
C296        C  0.51071357  0.23578712  0.88642706    -0.13400
C297        C  0.47131924  0.21507507  0.88276269    -0.28600
H298        H  0.02272603  0.27082412  0.89126071     0.15600
H299        H  0.45699061  0.18378324  0.87978740     0.16200
C300        C  0.20846843  0.23498658  0.83768500    -0.13400
C301        C  0.19043882  0.20782305  0.85596563    -0.28600
H302        H  0.19982084  0.25721928  0.83559972     0.15600
H303        H  0.19958624  0.18608515  0.85876301     0.16200
C304        C  0.47565569  0.41368537  0.86383980    -0.13400
C305        C  0.46597437  0.37927091  0.85263755    -0.28600
H306        H  0.47436324  0.41620496  0.88487221     0.15600
H307        H  0.46732626  0.37716990  0.83156951     0.16200
C308        C  0.02119130  0.04323297  0.87155542    -0.13400
C309        C  0.02200016  0.07466504  0.86115208    -0.28600
H310        H  0.51898634  0.03835751  0.88969824     0.15600
H311        H  0.01145024  0.07388113  0.84147463     0.16200
C312        C  0.27662000  0.37670182  0.66799564    -0.13400
C313        C  0.30740155  0.39292477  0.65169057    -0.28600
H314        H  0.24731523  0.35731927  0.66016038     0.15600
H315        H  0.33683222  0.41227427  0.65933503     0.16200
C316        C  0.38301437  0.44836807  0.80440355    -0.13400
C317        C  0.42099982  0.46667145  0.79720006    -0.28600
H318        H  0.37578154  0.44026457  0.82463968     0.15600
H319        H  0.42916667  0.47714610  0.77749091     0.16200
C320        C  0.23487135  0.28175186  0.78824705    -0.13400
C321        C  0.25762881  0.27206955  0.80301561    -0.28600
H322        H  0.20310959  0.26266469  0.78768551     0.15600
H323        H  0.28920074  0.29213652  0.80419445     0.16200
C324        C  0.21883053  0.08753982  0.65357413    -0.13400
C325        C  0.18777876  0.07401469  0.66965806    -0.28600
H326        H  0.24848638  0.09893748  0.66153994     0.15600
H327        H  0.15798765  0.06149267  0.66173150     0.16200
C328        C  0.10157648  0.00774776  0.80349508    -0.13400
C329        C  0.06743939  0.00846354  0.80101048    -0.28600
H330        H  0.10566415  0.99195577  0.81930706     0.15600
H331        H  0.06456617  0.02677786  0.78648999     0.16200
C332        C  0.24710289  0.51017288  0.75596107    -0.13400
C333        C  0.22818737  0.47190949  0.76116303    -0.28600
H334        H  0.29479512  0.01845035  0.76211256     0.15600
H335        H  0.19730539  0.45774226  0.76671246     0.16200
C336        C  0.24540518  0.18991709  0.78695065    -0.13400
C337        C  0.22269220  0.19910369  0.80223604    -0.28600
H338        H  0.27674968  0.21035667  0.78537790     0.15600
H339        H  0.19150887  0.17816460  0.80409131     0.16200
O340        O  0.24409108  0.56961613  0.75331460    -0.54800
C341        C  0.20089266  0.64911063  0.77854211     0.77900
O342        O  0.14504292  0.56130890  0.71208326    -0.55900
C343        C  0.22608535  0.53301345  0.75593654     0.77800
C344        C  0.11653027  0.52554337  0.78379141     0.80200
Cd345      Cd  0.18271176  0.57528696  0.75341489     1.37500
O346        O  0.22291792  0.63402020  0.78178561    -0.54800
O347        O  0.15146701  0.53864608  0.79220028    -0.53600
C348        C  0.17506218  0.57670696  0.69765709     0.80200
O349        O  0.11212785  0.53461058  0.76088450    -0.55900
O350        O  0.17239398  0.63154355  0.76278936    -0.54400
O351        O  0.18895108  0.51679868  0.75798149    -0.54400
O352        O  0.20840064  0.59250813  0.70900856    -0.53600
O353        O  0.26884003  0.84542630  0.78337014    -0.54800
C354        C  0.26209348  0.94012954  0.75640562     0.77900
O355        O  0.36389354  0.89781393  0.74919301    -0.55900
C356        C  0.26688929  0.81621959  0.77142927     0.77800
C357        C  0.28678000  0.88270130  0.69049912     0.80200
Cd358      Cd  0.29761094  0.89129778  0.74640767     1.37500
O359        O  0.24273016  0.90354070  0.75854718    -0.54800
O360        O  0.25867670  0.86523225  0.70614947    -0.53600
C361        C  0.37664162  0.92267451  0.76753885     0.80200
O362        O  0.32049077  0.90475222  0.70051248    -0.55900
O363        O  0.29824902  0.95443665  0.75078518    -0.54400
O364        O  0.27647500  0.82097949  0.74773973    -0.54400
O365        O  0.35419177  0.93573244  0.77489780    -0.53600
C366        C  0.48546108  0.93419004  0.84989192     0.89500
C367        C  0.02696348  0.95396531  0.83138666    -0.50700
C368        C  0.03429520  0.98746019  0.81915049     0.12500
C369        C  0.49345568  0.50539139  0.81786681     0.23400
C370        C  0.49273741  0.96860313  0.86753224    -0.51400
C371        C  0.49936427  0.51557018  0.84719546     0.12600
C372        C  0.45249426  0.92880400  0.83104568    -0.51000
C373        C  0.46019576  0.96131217  0.81763020     0.13100
H374        H  0.04402450  0.93922544  0.82806218     0.17700
H375        H  0.99111177  0.52097187  0.80537377     0.03400
H376        H  0.49284164  0.96740612  0.88866576     0.18000
H377        H  0.42513877  0.90152293  0.82865718     0.17800
O378        O  0.02220235  0.67983643  0.90012911    -0.54800
C379        C  0.15520758  0.69676058  0.87621878     0.77900
O380        O  0.07100648  0.66388209  0.95290371    -0.55900
C381        C  0.03640837  0.71588838  0.89678173     0.77800
C382        C  0.04017365  0.60207077  0.88948681     0.80200
Cd383      Cd  0.08544907  0.68080500  0.90639860     1.37500
O384        O  0.13633868  0.71496489  0.87221145    -0.54800
O385        O  0.04481516  0.62939459  0.87465614    -0.53600
C386        C  0.09950008  0.69458593  0.96228523     0.80200
O387        O  0.05543223  0.61134840  0.91204182    -0.55900
O388        O  0.14310419  0.67295944  0.89469385    -0.54400
O389        O  0.07371942  0.73607993  0.89689758    -0.54400
O390        O  0.12236064  0.71887814  0.94594760    -0.53600
O391        O  0.34371471  0.77476591  0.87991722    -0.54800
C392        C  0.44149629  0.73368157  0.89792725     0.77900
O393        O  0.40123883  0.83210858  0.90828199    -0.55900
C394        C  0.31962244  0.73930781  0.87596381     0.77800
C395        C  0.37805278  0.76049213  0.96478873     0.80200
Cd396      Cd  0.38996284  0.76588342  0.90879093     1.37500
O397        O  0.40442540  0.71346002  0.89536996    -0.54800
O398        O  0.35639048  0.73260688  0.94967539    -0.53600
C399        C  0.42826485  0.84378653  0.89141159     0.80200
O400        O  0.40442675  0.79063258  0.95411492    -0.55900
O401        O  0.45474838  0.76887824  0.90444420    -0.54400
O402        O  0.32758909  0.71550002  0.88714446    -0.54400
O403        O  0.43876904  0.81971980  0.88329608    -0.53600
C404        C  0.24231221  0.73899157  0.82632216     0.00600
C405        C  0.45690880  0.95767850  0.15023747     0.89500
C406        C  0.43771247  0.97550948  0.16752420    -0.50700
C407        C  0.46439605  0.00800670  0.18124032     0.12500
C408        C  0.01780895  0.51091752  0.17241919     0.23400
C409        C  0.48584848  0.99072454  0.13333526    -0.51400
C410        C  0.02702654  0.51917374  0.14320468     0.12600
C411        C  0.48308679  0.94955240  0.16845693    -0.51000
C412        C  0.00587854  0.98356196  0.17610662     0.13100
H413        H  0.40594672  0.96361090  0.16834248     0.17700
H414        H  0.03763014  0.53509426  0.18569948     0.03400
H415        H  0.48532527  0.98923375  0.11216575     0.18000
H416        H  0.48140167  0.92129817  0.16978638     0.17800
O417        O  0.17557950  0.92675601  0.22255860    -0.54800
C418        C  0.06294243  0.83403751  0.20639585     0.77900
O419        O  0.07243394  0.91393174  0.27068498    -0.55900
C420        C  0.19026128  0.96323205  0.22456229     0.77800
C421        C  0.07712356  0.95099980  0.19901631     0.80200
Cd422      Cd  0.10624059  0.91130027  0.23036426     1.37500
O423        O  0.09741859  0.84697416  0.21570468    -0.54800
O424        O  0.09412961  0.93348157  0.18923587    -0.53600
C425        C  0.08953569  0.90145404  0.28565565     0.80200
O426        O  0.07513155  0.95181252  0.22365874    -0.55900
O427        O  0.04812217  0.85620948  0.20850302    -0.54400
O428        O  0.16631522  0.97564651  0.22891957    -0.54400
O429        O  0.11410299  0.89333438  0.27519288    -0.53600
O430        O  0.38901044  0.64567835  0.21940395    -0.54800
C431        C  0.29591838  0.53096689  0.22818188     0.77900
O432        O  0.42081013  0.55160517  0.22446891    -0.55900
C433        C  0.42327023  0.65794619  0.21032351     0.77800
C434        C  0.39257758  0.58473260  0.28963006     0.80200
Cd435      Cd  0.38013153  0.58161730  0.23396028     1.37500
O436        O  0.31093912  0.56747689  0.22638589    -0.54800
O437        O  0.37036361  0.59599505  0.27931735    -0.53600
C438        C  0.40373838  0.53645341  0.20297685     0.80200
O439        O  0.41016617  0.57320318  0.27426204    -0.55900
O440        O  0.31963817  0.51822361  0.23234847    -0.54400
O441        O  0.43788803  0.63570852  0.21271137    -0.54400
O442        O  0.37620167  0.54279136  0.19568440    -0.53600
C443        C  0.49271894  0.73964101  0.16346977     0.00600
O444        O  0.39825649  0.74725897  0.11821491    -0.54800
C445        C  0.29569606  0.76581246  0.09525742     0.77900
O446        O  0.40470385  0.85742404  0.10172942    -0.55900
C447        C  0.43500755  0.77066092  0.11555906     0.77800
C448        C  0.38824205  0.78778983  0.03748096     0.80200
Cd449      Cd  0.37784262  0.78894155  0.09280368     1.37500
O450        O  0.30726966  0.74179347  0.10167040    -0.54800
O451        O  0.36768115  0.75651058  0.04967795    -0.53600
C452        C  0.39732915  0.85372697  0.12594096     0.80200
O453        O  0.40434859  0.81892071  0.05090185    -0.55900
O454        O  0.32167003  0.79865462  0.08751996    -0.54400
O455        O  0.44417359  0.79976277  0.10139619    -0.54400
O456        O  0.38079783  0.81968436  0.13486017    -0.53600
O457        O  0.08223357  0.73382929  0.11661856    -0.54800
C458        C  0.18288663  0.71262347  0.09913304     0.77900
O459        O  0.07319240  0.62089363  0.10128268    -0.55900
C460        C  0.04532325  0.71030562  0.11484985     0.77800
C461        C  0.08890804  0.68110601  0.03664862     0.80200
Cd462      Cd  0.10046601  0.68863030  0.09272529     1.37500
O463        O  0.17174022  0.73811620  0.09843094    -0.48500
O464        O  0.10998395  0.71412638  0.04734033    -0.53600
C465        C  0.07704128  0.62454055  0.12588809     0.80200
O466        O  0.07289782  0.65247686  0.05172927    -0.55900
O467        O  0.15632935  0.67759734  0.09725454    -0.54400
O468        O  0.03507561  0.67964626  0.10164429    -0.54400
O469        O  0.09208162  0.65854917  0.13546405    -0.53600
C470        C  0.48201797  0.50703263  0.46951571     0.89500
C471        C  0.01574414  0.53592598  0.48347282    -0.50700
C472        C  0.02860103  0.51782373  0.50018113     0.12500
C473        C  0.00623642  0.97646234  0.51289290     0.23400
C474        C  0.49115499  0.99162088  0.45686801    -0.51400
C475        C  0.00720818  0.96781758  0.48359670     0.12600
C476        C  0.44760815  0.99427445  0.48948456    -0.51000
C477        C  0.45818521  0.97425504  0.50614603     0.13100
H478        H  0.03043284  0.56729452  0.48148111     0.17700
H479        H  0.01642592  0.96040180  0.52549646     0.03400
H480        H  0.49112307  0.98892038  0.43584976     0.18000
H481        H  0.41833452  0.99155536  0.48927782     0.17800
O482        O  0.19121999  0.53532234  0.54337332    -0.54800
C483        C  0.21212122  0.67099473  0.56034735     0.77900
O484        O  0.12521689  0.53608972  0.56715273    -0.55900
C485        C  0.22797238  0.55017315  0.54024778     0.77800
C486        C  0.19880036  0.58712883  0.62485953     0.80200
Cd487      Cd  0.19268344  0.59054550  0.56887014     1.37500
O488        O  0.23701230  0.65975005  0.55538919    -0.54800
O489        O  0.22887439  0.60026603  0.61054645    -0.53600
C490        C  0.11537027  0.54862431  0.54745541     0.80200
O491        O  0.16587174  0.57419581  0.61334896    -0.55900
O492        O  0.17887348  0.64532095  0.56820256    -0.54400
O493        O  0.24882697  0.58394258  0.54987606    -0.54400
O494        O  0.14116667  0.58074174  0.53821856    -0.53600
O495        O  0.23231147  0.87234549  0.54633701    -0.54800
C496        C  0.26703018  0.78262181  0.55636447     0.77900
O497        O  0.36109517  0.90519123  0.55540386    -0.55900
C498        C  0.25301508  0.90525721  0.53612318     0.77800
C499        C  0.30205818  0.88387940  0.61666366     0.80200
Cd500      Cd  0.29040617  0.86489019  0.56150932     1.37500
O501        O  0.24120455  0.79352033  0.55651592    -0.54800
O502        O  0.26782009  0.86442667  0.60681415    -0.53600
C503        C  0.35963815  0.89818487  0.53114383     0.80200
O504        O  0.33050669  0.89530585  0.60108103    -0.55900
O505        O  0.30246915  0.80920184  0.55800635    -0.54400
O506        O  0.28990945  0.91941665  0.53829030    -0.54400
O507        O  0.32638543  0.87427059  0.52130151    -0.53600
C508        C  0.23945667  0.97403699  0.48763138     0.00600
O509        O  0.34035966  0.57850139  0.44979144    -0.54800
C510        C  0.45661417  0.68018548  0.42301600     0.77900
O511        O  0.43120188  0.56194411  0.42093625    -0.55900
C512        C  0.32051660  0.54433618  0.44024102     0.77800
C513        C  0.38387880  0.59630139  0.36302247     0.80200
Cd514      Cd  0.39633144  0.59930315  0.41796562     1.37500
O515        O  0.42133853  0.67004300  0.42981327    -0.54800
O516        O  0.36952681  0.61172468  0.37819456    -0.53600
C517        C  0.43708534  0.56807470  0.44528278     0.80200
O518        O  0.40301323  0.58140338  0.37339671    -0.55900
O519        O  0.46284840  0.65356563  0.41444119    -0.54400
O520        O  0.33383002  0.53735967  0.41965066    -0.54400
O521        O  0.42462918  0.58878113  0.45627234    -0.53600
O522        O  0.05088129  0.80198280  0.42192522    -0.54800
C523        C  0.14985556  0.92299358  0.43944449     0.77900
O524        O  0.06907328  0.89140973  0.36891197    -0.55900
C525        C  0.01467619  0.79317578  0.42202540     0.77800
C526        C  0.03674039  0.91015990  0.43695979     0.80200
Cd527      Cd  0.07526795  0.87272390  0.41356343     1.37500
O528        O  0.13229792  0.88671494  0.44373877    -0.54800
O529        O  0.05367524  0.89608193  0.45077845    -0.53600
C530        C  0.08980233  0.87858881  0.35816332     0.80200
O531        O  0.03748891  0.90650134  0.41245188    -0.55900
O532        O  0.13434246  0.93449050  0.42254146    -0.54400
O533        O  0.00740391  0.82070635  0.41893362    -0.54400
O534        O  0.10386899  0.86275868  0.37293723    -0.53600
C535        C  0.48976215  0.72063484  0.42413079    -0.13400
C536        C  0.48617026  0.75121499  0.43218846    -0.28600
H537        H  0.51809327  0.72548553  0.41688565     0.15600
H538        H  0.95192719  0.74897191  0.42593023     0.16200
C539        C  0.20463673  0.94264205  0.47189160    -0.13400
C540        C  0.18567027  0.95177457  0.45365261    -0.28600
H541        H  0.19462250  0.91214279  0.47550390     0.15600
H542        H  0.19598914  0.98221519  0.44964665     0.16200
C543        C  0.28431489  0.51312171  0.45243440    -0.13400
C544        C  0.27852041  0.51211932  0.47838306    -0.28600
H545        H  0.26464912  0.48880274  0.44008091     0.15600
H546        H  0.30132043  0.53585537  0.48980224     0.16200
C547        C  0.25671396  0.95465439  0.50519491    -0.13400
C548        C  0.23525372  0.92571300  0.52191073    -0.28600
H549        H  0.28789901  0.96355973  0.50318142     0.15600
H550        H  0.20378889  0.91526541  0.52377727     0.16200
C551        C  0.22070656  0.71178965  0.55795058    -0.13400
C552        C  0.25746227  0.74139729  0.55496806    -0.28600
H553        H  0.19644524  0.71783787  0.56067304     0.15600
H554        H  0.28190986  0.73541345  0.55324844     0.16200
C555        C  0.24593336  0.52948431  0.52631571    -0.13400
C556        C  0.22510776  0.49825163  0.51040129    -0.28600
H557        H  0.27759333  0.54139376  0.52850668     0.15600
H558        H  0.19348011  0.48717987  0.50834360     0.16200
C559        C  0.45636228  0.55144169  0.46089757    -0.13400
C560        C  0.46821506  0.52728701  0.45111714    -0.28600
H561        H  0.45874024  0.55740681  0.48175023     0.15600
H562        H  0.46610697  0.52089012  0.43034713     0.16200
C563        C  0.01732443  0.93045388  0.44836459    -0.13400
C564        C  0.02267640  0.94262954  0.47336768    -0.28600
H565        H  0.99946273  0.93670604  0.43510714     0.15600
H566        H  0.03986821  0.93511286  0.48647704     0.16200
C567        C  0.42945108  0.94541115  0.52390014    -0.13400
C568        C  0.39400597  0.91894020  0.51448541    -0.28600
H569        H  0.43607616  0.94819136  0.54463027     0.15600
H570        H  0.38884065  0.91587279  0.49354216     0.16200
C571        C  0.06532385  0.54054282  0.51539109    -0.13400
C572        C  0.07612122  0.52612821  0.53535469    -0.28600
H573        H  0.08467688  0.57027519  0.50943643     0.15600
H574        H  0.05667267  0.49722582  0.54250561     0.16200
C575        C  0.22449448  0.72195943  0.10143072    -0.13400
C576        C  0.25424266  0.75721725  0.09623961    -0.28600
H577        H  0.23059860  0.69839745  0.10546322     0.15600
H578        H  0.24792344  0.78034891  0.09123322     0.16200
C579        C  0.02289529  0.74589043  0.14454908    -0.13400
C580        C  0.01474792  0.71600166  0.12821648    -0.28600
H581        H  0.05327373  0.76919391  0.14621339     0.15600
H582        H  0.98436195  0.69281711  0.12626130     0.16200
C583        C  0.45963200  0.73916186  0.14665327    -0.13400
C584        C  0.46663006  0.76653561  0.12892516    -0.28600
H585        H  0.42926036  0.71670394  0.14961946     0.15600
H586        H  0.49692871  0.78889247  0.12563204     0.16200
C587        C  0.39763682  0.58454259  0.31804060    -0.13400
C588        C  0.37863890  0.59619264  0.33461888    -0.28600
H589        H  0.41727075  0.57443156  0.32544753     0.15600
H590        H  0.35937851  0.60673295  0.32719171     0.16200
C591        C  0.47502759  0.70415120  0.18106488    -0.13400
C592        C  0.44427315  0.69562608  0.19695760    -0.28600
H593        H  0.48620172  0.68370866  0.17955469     0.15600
H594        H  0.43209546  0.71522719  0.19825279     0.16200
C595        C  0.08118748  0.89703094  0.31381024    -0.13400
C596        C  0.09757387  0.88204524  0.32991268    -0.28600
H597        H  0.06110645  0.90646880  0.32145904     0.15600
H598        H  0.11727765  0.87215522  0.32223882     0.16200
C599        C  0.24918191  0.02848177  0.22184610    -0.13400
C600        C  0.23322696  0.98956516  0.22274897    -0.28600
H601        H  0.23369105  0.51760622  0.22728236     0.15600
H602        H  0.25229978  0.97655703  0.22304432     0.16200
C603        C  0.04182516  0.79540014  0.19341117    -0.13400
C604        C  0.00970519  0.78456931  0.17801698    -0.28600
H605        H  0.05457502  0.77634143  0.19505208     0.15600
H606        H  0.99768729  0.80423880  0.17608086     0.16200
C607        C  0.05498942  0.55638567  0.13173665    -0.13400
C608        C  0.06303534  0.59045372  0.14250645    -0.28600
H609        H  0.06321421  0.55549265  0.11160820     0.15600
H610        H  0.05496044  0.59249512  0.16244465     0.16200
C611        C  0.42947369  0.92330426  0.13369795    -0.13400
C612        C  0.40948931  0.88751564  0.14328837    -0.28600
H613        H  0.43129854  0.92675689  0.11267516     0.15600
H614        H  0.40738186  0.88315151  0.16420800     0.16200
C615        C  0.44775581  0.51021899  0.19200132    -0.13400
C616        C  0.41488244  0.51231195  0.18705059    -0.28600
H617        H  0.47340381  0.05185930  0.21203293     0.15600
H618        H  0.39634961  0.49711241  0.17029832     0.16200
C619        C  0.03874937  0.98469241  0.19132492    -0.13400
C620        C  0.05765309  0.96633120  0.18206032    -0.28600
H621        H  0.04344891  0.99574017  0.21122395     0.15600
H622        H  0.05375022  0.95712785  0.16172135     0.16200
C623        C  0.37275768  0.75786737  0.99330466    -0.13400
C624        C  0.39352643  0.78882707  0.00902627    -0.28600
H625        H  0.35107407  0.73035686  0.00141703     0.15600
H626        H  0.41443221  0.81649518  0.00069192     0.16200
C627        C  0.28413969  0.72625687  0.85923751    -0.13400
C628        C  0.27772499  0.75125757  0.84487410    -0.28600
H629        H  0.26388136  0.69529131  0.85798307     0.15600
H630        H  0.29997763  0.78183387  0.84577553     0.16200
C631        C  0.10576457  0.70198005  0.99074443    -0.13400
C632        C  0.08278868  0.67527566  0.00813960    -0.28600
H633        H  0.12995428  0.72962210  0.99748406     0.15600
H634        H  0.05943495  0.64722080  0.00126410     0.16200
C635        C  0.50710252  0.73824936  0.89474340    -0.13400
C636        C  0.46752102  0.71643910  0.89473772    -0.28600
H637        H  0.02498114  0.76510187  0.89193621     0.15600
H638        H  0.45382386  0.68494766  0.89394416     0.16200
C639        C  0.20506324  0.72954896  0.84192512    -0.13400
C640        C  0.18951708  0.70236421  0.86042364    -0.28600
H641        H  0.19074156  0.74694592  0.83841877     0.15600
H642        H  0.20225641  0.68390000  0.86445988     0.16200
C643        C  0.47530308  0.89764331  0.86443387    -0.13400
C644        C  0.44464993  0.88288528  0.88081003    -0.28600
H645        H  0.49149987  0.88216602  0.86043449     0.15600
H646        H  0.42920068  0.89902546  0.88509648     0.16200
C647        C  0.00518022  0.54938910  0.85690941    -0.13400
C648        C  0.01926129  0.56122010  0.88123716    -0.28600
H649        H  0.50782192  0.57506296  0.84497042     0.15600
H650        H  0.01837117  0.54093651  0.89557468     0.16200
C651        C  0.27980168  0.87676984  0.66214260    -0.13400
C652        C  0.30912652  0.89248557  0.64482426    -0.28600
H653        H  0.24970686  0.85783071  0.65541664     0.15600
H654        H  0.33935563  0.91083078  0.65151728     0.16200
C655        C  0.41412386  0.93267958  0.78094030    -0.13400
C656        C  0.43122387  0.96141238  0.79881773    -0.28600
H657        H  0.42581143  0.91285144  0.77804572     0.15600
H658        H  0.42154389  0.98285237  0.80124850     0.16200
C659        C  0.25542030  0.77873360  0.78428714    -0.13400
C660        C  0.25121581  0.77503067  0.81031521    -0.28600
H661        H  0.25292294  0.75495113  0.77217146     0.15600
H662        H  0.25526031  0.80030137  0.82155038     0.16200
C663        C  0.20244176  0.58757472  0.65343758    -0.13400
C664        C  0.17105310  0.57580612  0.66907743    -0.28600
H665        H  0.23179188  0.59844031  0.66179790     0.15600
H666        H  0.14163418  0.56463141  0.66075633     0.16200
C667        C  0.08294868  0.50199028  0.80049089    -0.13400
C668        C  0.04757796  0.49910655  0.79607901    -0.28600
H669        H  0.08857907  0.49061039  0.81819928     0.15600
H670        H  0.04328403  0.51355978  0.77949132     0.16200
C671        C  0.26277244  0.00335736  0.76060070    -0.13400
C672        C  0.24261850  0.96424939  0.75909535    -0.28600
H673        H  0.27818962  0.52472290  0.75093198     0.15600
H674        H  0.21052865  0.94930480  0.75877289     0.16200
C675        C  0.20675121  0.68458117  0.79273999    -0.13400
C676        C  0.23694425  0.70412762  0.80956101    -0.28600
H677        H  0.18504521  0.69412863  0.78997471     0.15600
H678        H  0.25830420  0.69400028  0.81171948     0.16200
O679        O  0.75816970  0.05771010  0.76685687    -0.54800
C680        C  0.72961450  0.14391028  0.77627149     0.77900
O681        O  0.65761062  0.04692078  0.71593388    -0.55900
C682        C  0.74186415  0.02191835  0.76088721     0.77800
C683        C  0.63275674  0.02299641  0.78834611     0.80200
Cd684      Cd  0.69964880  0.06536098  0.75561441     1.37500
O685        O  0.69405155  0.11789457  0.77845917    -0.54800
O686        O  0.66639815  0.02717812  0.79416081    -0.53600
C687        C  0.68563713  0.06496026  0.70034052     0.80200
O688        O  0.63002226  0.03804852  0.76730153    -0.55900
O689        O  0.75196151  0.13405003  0.76441615    -0.54400
O690        O  0.70647455  0.00647145  0.75290146    -0.54400
O691        O  0.71982585  0.08368442  0.71026478    -0.53600
O692        O  0.78455993  0.33236180  0.76962774    -0.54800
C693        C  0.74777740  0.43991358  0.75522193     0.77900
O694        O  0.85030298  0.42006387  0.75887307    -0.55900
C695        C  0.74811903  0.31048010  0.77352024     0.77800
C696        C  0.77838499  0.37304892  0.69359069     0.80200
Cd697      Cd  0.77864027  0.38630845  0.74922220     1.37500
O698        O  0.72723243  0.40415902  0.76029822    -0.54800
O699        O  0.74763120  0.35666688  0.70721930    -0.53600
C700        C  0.84530716  0.42361711  0.78300058     0.80200
O701        O  0.81028808  0.39527094  0.70562201    -0.55900
O702        O  0.78241915  0.45100618  0.74728082    -0.54400
O703        O  0.72528413  0.32265925  0.76535061    -0.54400
O704        O  0.81032726  0.41155641  0.79062529    -0.53600
C705        C  0.97502869  0.44138237  0.85011550     0.89500
C706        C  0.51664912  0.45954217  0.82772189    -0.50700
C707        C  0.52221202  0.48990872  0.81236234     0.12500
C708        C  0.00570283  0.00251911  0.82668445     0.23400
C709        C  0.98333000  0.47878508  0.86424099    -0.51400
C710        C  0.00927478  0.00677251  0.85667447     0.12600
C711        C  0.93965537  0.43180317  0.83236338    -0.51000
C712        C  0.94548833  0.46091760  0.81583929     0.13100
H713        H  0.53457086  0.44535549  0.82645904     0.17700
H714        H  0.50685520  0.02279035  0.81317819     0.03400
H715        H  0.98435927  0.48096254  0.88529794     0.18000
H716        H  0.91272154  0.40389952  0.83238212     0.17800
O717        O  0.57293278  0.23725948  0.89023038    -0.54800
C718        C  0.65527715  0.19715716  0.87144765     0.77900
O719        O  0.56821074  0.15846131  0.94423934    -0.55900
C720        C  0.53558376  0.21733634  0.88929139     0.77800
C721        C  0.53863926  0.10825717  0.87240407     0.80200
Cd722      Cd  0.58338723  0.18120758  0.89838155     1.37500
O723        O  0.64041108  0.21933963  0.86884654    -0.54800
O724        O  0.54780027  0.13983037  0.86111160    -0.53600
C725        C  0.59383516  0.19008496  0.95469059     0.80200
O726        O  0.54851419  0.11039125  0.89622515    -0.55900
O727        O  0.63883706  0.17013461  0.88764499    -0.54400
O728        O  0.52075270  0.18107162  0.89186921    -0.54400
O729        O  0.61524671  0.21688052  0.93928424    -0.53600
O730        O  0.83700196  0.23459295  0.86871577    -0.54800
C731        C  0.94323662  0.23487869  0.89320273     0.77900
O732        O  0.93343395  0.33984414  0.89777385    -0.55900
C733        C  0.82353817  0.25791873  0.87204595     0.77800
C734        C  0.88013737  0.26285713  0.95517102     0.80200
Cd735      Cd  0.89361098  0.26957664  0.89987259     1.37500
O736        O  0.90594346  0.21449150  0.89111105    -0.54800
O737        O  0.86513232  0.23330615  0.94022917    -0.53600
C738        C  0.94082504  0.33926422  0.87374092     0.80200
O739        O  0.90074148  0.29542502  0.94452166    -0.55900
O740        O  0.95699898  0.27072162  0.89797211    -0.54400
O741        O  0.84024426  0.28380446  0.88944438    -0.54400
O742        O  0.92849266  0.30652892  0.86271074    -0.53600
C743        C  0.73942429  0.22901133  0.82027299     0.00600
C744        C  0.97175718  0.45398799  0.14125546     0.89500
C745        C  0.94965260  0.46944136  0.15798526    -0.50700
C746        C  0.97381027  0.49951726  0.17433250     0.12500
C747        C  0.50792585  0.01857412  0.17673648     0.23400
C748        C  0.00309342  0.48919252  0.12710329    -0.51400
C749        C  0.51264610  0.02245289  0.14689685     0.12600
C750        C  0.99493093  0.44332793  0.16043803    -0.51000
C751        C  0.51002109  0.46716949  0.17405095     0.13100
H752        H  0.91786045  0.45746948  0.15687203     0.17700
H753        H  0.52983914  0.04438668  0.18798091     0.03400
H754        H  0.00527425  0.49091374  0.10600798     0.18000
H755        H  0.99304275  0.41491048  0.16072862     0.17800
O756        O  0.68156477  0.41367889  0.22776583    -0.54800
C757        C  0.56850885  0.32671355  0.20723991     0.77900
O758        O  0.58485301  0.40888281  0.27492522    -0.55900
C759        C  0.69761616  0.45028263  0.22936153     0.77800
C760        C  0.58360924  0.43980063  0.20127226     0.80200
Cd761      Cd  0.61323383  0.40140867  0.23360921     1.37500
O762        O  0.55299700  0.34707557  0.21405276    -0.54800
O763        O  0.60256533  0.42381896  0.19223504    -0.53600
C764        C  0.59880399  0.39228095  0.28899603     0.80200
O765        O  0.58086249  0.44094613  0.22585717    -0.55900
O766        O  0.60411118  0.33929477  0.21412939    -0.54400
O767        O  0.67475044  0.46437518  0.23233643    -0.54400
O768        O  0.61824969  0.37871064  0.27745858    -0.53600
O769        O  0.88414912  0.15796668  0.21904552    -0.54800
C770        C  0.78956048  0.04687541  0.23517359     0.77900
O771        O  0.91701700  0.06816258  0.23412709    -0.55900
C772        C  0.91811247  0.16696874  0.21050092     0.77800
C773        C  0.88451981  0.10953260  0.29622114     0.80200
Cd774      Cd  0.87385073  0.09736364  0.24060637     1.37500
O775        O  0.80442932  0.08327383  0.23270197    -0.54800
O776        O  0.87803578  0.13182303  0.28205677    -0.53600
C777        C  0.89953285  0.05079660  0.21314808     0.80200
O778        O  0.88828919  0.08311232  0.28461521    -0.55900
O779        O  0.81338641  0.03450825  0.23991584    -0.54400
O780        O  0.93199408  0.14515002  0.21687752    -0.54400
O781        O  0.87127831  0.05561028  0.20529719    -0.53600
C782        C  0.98538071  0.23255760  0.15540523     0.00600
O783        O  0.89283427  0.24372939  0.11057830    -0.54800
C784        C  0.79193087  0.26015040  0.09010832     0.77900
O785        O  0.90965701  0.35472618  0.09072167    -0.55900
C786        C  0.92966943  0.26479377  0.10675713     0.77800
C787        C  0.88220284  0.28779178  0.02780275     0.80200
Cd788      Cd  0.87435088  0.28540051  0.08359130     1.37500
O789        O  0.80346253  0.23506073  0.08793898    -0.54800
O790        O  0.86769342  0.25581139  0.03970726    -0.53600
C791        C  0.90213129  0.35272735  0.11488748     0.80200
O792        O  0.89287152  0.31808071  0.04161425    -0.55900
O793        O  0.81817465  0.29536157  0.08971336    -0.54400
O794        O  0.93968062  0.29244182  0.09114323    -0.54400
O795        O  0.88062825  0.31943373  0.12424651    -0.53600
O796        O  0.58432088  0.23246250  0.10832545    -0.54800
C797        C  0.67902201  0.20558466  0.08709673     0.77900
O798        O  0.56828594  0.11700696  0.09748525    -0.55900
C799        C  0.54697897  0.21132559  0.10680473     0.77800
C800        C  0.58268029  0.17445003  0.02889747     0.80200
Cd801      Cd  0.59706115  0.18369358  0.08461700     1.37500
O802        O  0.66828846  0.23108064  0.09067636    -0.48500
O803        O  0.60463892  0.20754565  0.03926922    -0.53600
C804        C  0.57281629  0.12403539  0.12182948     0.80200
O805        O  0.56612043  0.14617359  0.04427536    -0.55900
O806        O  0.65214526  0.17122430  0.08253943    -0.54400
O807        O  0.53400737  0.18052091  0.09324830    -0.54400
O808        O  0.58999892  0.15925572  0.12906918    -0.53600
C809        C  0.98081909  0.01228684  0.48265042     0.89500
C810        C  0.51610433  0.04593061  0.48740046    -0.50700
C811        C  0.52696067  0.02624682  0.50425597     0.12500
C812        C  0.50460028  0.47214184  0.50267073     0.23400
C813        C  0.99134847  0.48110058  0.45343727    -0.51400
C814        C  0.50658175  0.46140899  0.47392060     0.12600
C815        C  0.94852286  0.48237515  0.48710174    -0.51000
C816        C  0.96120625  0.46380091  0.50356678     0.13100
H817        H  0.53252875  0.07728830  0.48544460     0.17700
H818        H  0.51379495  0.45668743  0.51658762     0.03400
H819        H  0.98919075  0.47719892  0.43247042     0.18000
H820        H  0.91894383  0.47885640  0.48780255     0.17800
O821        O  0.68909976  0.02866224  0.54870501    -0.54800
C822        C  0.71290590  0.16706628  0.56602326     0.77900
O823        O  0.62005119  0.03886161  0.57240268    -0.55900
C824        C  0.72534658  0.04506846  0.54320353     0.77800
C825        C  0.70203420  0.07975711  0.62703688     0.80200
Cd826      Cd  0.69107475  0.08558990  0.57204373     1.37500
O827        O  0.73625738  0.15463768  0.55940234    -0.54800
O828        O  0.73082641  0.09586634  0.61175810    -0.53600
C829        C  0.61310906  0.04952957  0.55073421     0.80200
O830        O  0.66795007  0.06503024  0.61687957    -0.55900
O831        O  0.67997278  0.14214307  0.57483963    -0.54400
O832        O  0.74576384  0.08006880  0.55065986    -0.54400
O833        O  0.64224622  0.07643599  0.53908537    -0.53600
O834        O  0.74041172  0.37038305  0.54837416    -0.54800
C835        C  0.77115109  0.27868818  0.56172734     0.77900
O836        O  0.86836283  0.39887132  0.55768847    -0.55900
C837        C  0.76161633  0.40468996  0.54029378     0.77800
C838        C  0.80339650  0.37768236  0.62089805     0.80200
Cd839      Cd  0.79679921  0.36160168  0.56533255     1.37500
O840        O  0.74668099  0.29088678  0.55823260    -0.54800
O841        O  0.77057126  0.35596240  0.60981284    -0.53600
C842        C  0.86500547  0.39069500  0.53351937     0.80200
O843        O  0.83317033  0.39301558  0.60629493    -0.55900
O844        O  0.80645073  0.30430263  0.56620373    -0.54400
O845        O  0.79827244  0.41922171  0.54429969    -0.54400
O846        O  0.83077315  0.36744688  0.52479533    -0.53600
C847        C  0.74860684  0.47748730  0.49488067     0.00600
O848        O  0.83809260  0.07868879  0.45401467    -0.54800
C849        C  0.95804173  0.17899840  0.42770217     0.77900
O850        O  0.92987747  0.06299172  0.43221958    -0.55900
C851        C  0.81711576  0.04590825  0.44281101     0.77800
C852        C  0.89160607  0.09198333  0.36866544     0.80200
Cd853      Cd  0.89576310  0.09905235  0.42395649     1.37500
O854        O  0.92208458  0.17120961  0.42937214    -0.54800
O855        O  0.88135137  0.11403592  0.38054924    -0.53600
C856        C  0.93218439  0.06911582  0.45667093     0.80200
O857        O  0.90265908  0.07250340  0.38246901    -0.55900
O858        O  0.96404504  0.15045236  0.42501793    -0.54400
O859        O  0.83020804  0.04037169  0.42163958    -0.54400
O860        O  0.91740538  0.08903789  0.46576687    -0.53600
O861        O  0.52455206  0.31144614  0.42225989    -0.54800
C862        C  0.66076930  0.42403949  0.44509986     0.77900
O863        O  0.58226404  0.38535963  0.37206532    -0.55900
C864        C  0.53690796  0.28755923  0.42570165     0.77800
C865        C  0.54285348  0.40287272  0.43383922     0.80200
Cd866      Cd  0.58934377  0.36955550  0.41690615     1.37500
O867        O  0.64492967  0.38789323  0.44938565    -0.54800
O868        O  0.55954647  0.39148700  0.45011021    -0.53600
C869        C  0.60449534  0.37413083  0.36168916     0.80200
O870        O  0.54668129  0.39752419  0.40993150    -0.55900
O871        O  0.64522848  0.43395899  0.42724220    -0.54400
O872        O  0.57407293  0.30156260  0.42641106    -0.54400
O873        O  0.62090548  0.36112736  0.37691142    -0.53600
C874        C  0.99229998  0.21887198  0.42822534    -0.13400
C875        C  0.98864994  0.25086561  0.42679251    -0.28600
H876        H  0.02163407  0.22175140  0.42805730     0.15600
H877        H  0.52203696  0.22610010  0.42825086     0.16200
C878        C  0.71662960  0.44627726  0.47695559    -0.13400
C879        C  0.69440056  0.45408456  0.46047781    -0.28600
H880        H  0.71064313  0.41638223  0.47814107     0.15600
H881        H  0.70061222  0.48395495  0.45858561     0.16200
C882        C  0.78025761  0.01434398  0.45406428    -0.13400
C883        C  0.77548930  0.01023487  0.48007124    -0.28600
H884        H  0.75956234  0.99203028  0.44084920     0.15600
H885        H  0.79919135  0.03213076  0.49205640     0.16200
C886        C  0.76638872  0.45787042  0.51190510    -0.13400
C887        C  0.74440169  0.42616817  0.52656244    -0.28600
H888        H  0.79808103  0.46878098  0.51106684     0.15600
H889        H  0.71256442  0.41414738  0.52701776     0.16200
C890        C  0.72290853  0.20832578  0.56403109    -0.13400
C891        C  0.76015145  0.23704504  0.56098634    -0.28600
H892        H  0.69937670  0.21542794  0.56679108     0.15600
H893        H  0.78392323  0.23000346  0.55973470     0.16200
C894        C  0.74332754  0.02494531  0.52886393    -0.13400
C895        C  0.72230632  0.99447645  0.51257122    -0.28600
H896        H  0.77508819  0.03721183  0.53054965     0.15600
H897        H  0.69063320  0.98347032  0.51094569     0.16200
C898        C  0.95069375  0.05355573  0.47405505    -0.13400
C899        C  0.96571903  0.03184932  0.46476572    -0.28600
H900        H  0.95068724  0.05865677  0.49489840     0.15600
H901        H  0.96549439  0.02676042  0.44389556     0.16200
C902        C  0.52101337  0.42270538  0.44185252    -0.13400
C903        C  0.52274556  0.43566111  0.46636024    -0.28600
H904        H  0.50540543  0.42874039  0.42665985     0.15600
H905        H  0.53808667  0.42868076  0.48130673     0.16200
C906        C  0.93460405  0.43631451  0.52299674    -0.13400
C907        C  0.89810086  0.40944765  0.51549674    -0.28600
H908        H  0.94341103  0.44084429  0.54338729     0.15600
H909        H  0.89084811  0.40480388  0.49482276     0.16200
C910        C  0.56459442  0.04643382  0.51894130    -0.13400
C911        C  0.57312088  0.03080363  0.53933302    -0.28600
H912        H  0.58660389  0.07477079  0.51208573     0.15600
H913        H  0.55087731  0.00375957  0.54757989     0.16200
C914        C  0.72056655  0.21443951  0.08765658    -0.13400
C915        C  0.75024182  0.25022641  0.09240977    -0.28600
H916        H  0.72688626  0.19105769  0.08310983     0.15600
H917        H  0.74390094  0.27371777  0.09649584     0.16200
C918        C  0.52935025  0.24765615  0.13936279    -0.13400
C919        C  0.51881912  0.22004331  0.12067537    -0.28600
H920        H  0.56057194  0.26675972  0.14337905     0.15600
H921        H  0.48760651  0.20076365  0.11677857     0.16200
C922        C  0.95266823  0.23457781  0.13983067    -0.13400
C923        C  0.96045252  0.25937154  0.12014324    -0.28600
H924        H  0.92195819  0.21574892  0.14494991     0.15600
H925        H  0.99100754  0.27841757  0.11483536     0.16200
C926        C  0.88649161  0.11378930  0.32478848    -0.13400
C927        C  0.89097712  0.08880817  0.34008658    -0.28600
H928        H  0.88312727  0.13728934  0.33340298     0.15600
H929        H  0.89490670  0.06565671  0.33144990     0.16200
C930        C  0.96613620  0.20104081  0.17586445    -0.13400
C931        C  0.93980872  0.20042144  0.19328723    -0.28600
H932        H  0.97260728  0.17711228  0.17562924     0.15600
H933        H  0.93159933  0.22311362  0.19318002     0.16200
C934        C  0.59274810  0.38949580  0.31736389    -0.13400
C935        C  0.61072796  0.37593262  0.33329718    -0.28600
H936        H  0.57356119  0.39977807  0.32539914     0.15600
H937        H  0.63029144  0.36601985  0.32540621     0.16200
C938        C  0.75822923  0.51343147  0.22496857    -0.13400
C939        C  0.74086452  0.47489512  0.22855945    -0.28600
H940        H  0.72699334  0.03256370  0.23393315     0.15600
H941        H  0.75884248  0.46099832  0.23135959     0.16200
C942        C  0.54675507  0.29085591  0.19132976    -0.13400
C943        C  0.51872476  0.28680537  0.17395395    -0.28600
H944        H  0.55618744  0.26908347  0.19210586     0.15600
H945        H  0.51124623  0.30999757  0.17269137     0.16200
C946        C  0.54160316  0.05601581  0.13231407    -0.13400
C947        C  0.55668241  0.09259878  0.14081996    -0.28600
H948        H  0.54574643  0.05059027  0.11204534     0.15600
H949        H  0.55272782  0.09919423  0.16080808     0.16200
C950        C  0.94643239  0.42141551  0.12294377    -0.13400
C951        C  0.91912673  0.38709123  0.13185816    -0.28600
H952        H  0.95301725  0.42491229  0.10226409     0.15600
H953        H  0.91273406  0.38337519  0.15254810     0.16200
C954        C  0.94338984  0.02349008  0.20244486    -0.13400
C955        C  0.91046760  0.02573931  0.19804555    -0.28600
H956        H  0.97793603  0.53630581  0.20832278     0.15600
H957        H  0.89135725  0.00993334  0.18164799     0.16200
C958        C  0.54044039  0.46787441  0.19167576    -0.13400
C959        C  0.56304752  0.45292790  0.18345317    -0.28600
H960        H  0.54157603  0.47721469  0.21178260     0.15600
H961        H  0.56226943  0.44525005  0.16296434     0.16200
C962        C  0.87403582  0.25916522  0.98357872    -0.13400
C963        C  0.88707797  0.29052044  0.99931332    -0.28600
H964        H  0.85861998  0.23020546  0.99166162     0.15600
H965        H  0.90186831  0.31940200  0.99106627     0.16200
C966        C  0.79099607  0.25664611  0.85619976    -0.13400
C967        C  0.77237229  0.22987344  0.83734800    -0.28600
H968        H  0.78277144  0.27898426  0.85966041     0.15600
H969        H  0.78057136  0.20735113  0.83463749     0.16200
C970        C  0.59880324  0.19618223  0.98328127    -0.13400
C971        C  0.57675433  0.16841694  0.00034583    -0.28600
H972        H  0.62141719  0.22440972  0.99045397     0.15600
H973        H  0.55463233  0.13993969  0.99321263     0.16200
C974        C  0.00895073  0.23931813  0.89109680    -0.13400
C975        C  0.96927407  0.21749175  0.89100528    -0.28600
H976        H  0.52502951  0.26720182  0.88864675     0.15600
H977        H  0.95551130  0.18599809  0.89032120     0.16200
C978        C  0.70705313  0.22814855  0.83780711    -0.13400
C979        C  0.68895428  0.20077745  0.85594453    -0.28600
H980        H  0.69821378  0.25022457  0.83555705     0.15600
H981        H  0.69801023  0.17894747  0.85865315     0.16200
C982        C  0.96758314  0.40891454  0.86810493    -0.13400
C983        C  0.96020014  0.37445283  0.85837147    -0.28600
H984        H  0.96447928  0.41250883  0.88884109     0.15600
H985        H  0.96326020  0.37111860  0.83759400     0.16200
C986        C  0.51280653  0.03813525  0.86900462    -0.13400
C987        C  0.51913836  0.07118189  0.85787616    -0.28600
H988        H  0.03116074  0.04463234  0.89154781     0.15600
H989        H  0.51260414  0.07189576  0.83742225     0.16200
C990        C  0.77604965  0.36628109  0.66515512    -0.13400
C991        C  0.80711852  0.38476975  0.64935494    -0.28600
H992        H  0.74738859  0.34575223  0.65693050     0.15600
H993        H  0.83588759  0.40526467  0.65743183     0.16200
C994        C  0.87754315  0.43833232  0.80220054    -0.13400
C995        C  0.91581956  0.45603092  0.79593973    -0.28600
H996        H  0.86918448  0.43193171  0.82249276     0.15600
H997        H  0.92522046  0.46501767  0.77611353     0.16200
C998        C  0.73281061  0.27313272  0.78741063    -0.13400
C999        C  0.75591828  0.26500037  0.80304257    -0.28600
H1000       H  0.70123727  0.25316546  0.78648218     0.15600
H1001       H  0.78729057  0.28578705  0.80440214     0.16200
C1002       C  0.70849846  0.07918119  0.65521595    -0.13400
C1003       C  0.67853283  0.06398569  0.67210708    -0.28600
H1004       H  0.73882075  0.09244981  0.66227298     0.15600
H1005       H  0.64816638  0.05036758  0.66510985     0.16200
C1006       C  0.59863464  0.00154036  0.80541563    -0.13400
C1007       C  0.56494522  0.00304921  0.80246108    -0.28600
H1008       H  0.60196558  0.98537442  0.82128414     0.15600
H1009       H  0.56298596  0.02153029  0.78766705     0.16200
C1010       C  0.75332661  0.50559204  0.75607769    -0.13400
C1011       C  0.73134090  0.46662975  0.75786144    -0.28600
H1012       H  0.79530850  0.01563924  0.76449032     0.15600
H1013       H  0.69971753  0.45352557  0.76090505     0.16200
C1014       C  0.74468773  0.18322173  0.78774656    -0.13400
C1015       C  0.72217407  0.19220709  0.80328534    -0.28600
H1016       H  0.77580292  0.20401159  0.78547055     0.15600
H1017       H  0.69112118  0.17099669  0.80543098     0.16200
O1018       O  0.75458098  0.56747280  0.75661376    -0.54800
C1019       C  0.72037243  0.65394695  0.77484995     0.77900
O1020       O  0.65578938  0.56031892  0.71210842    -0.55900
C1021       C  0.73465715  0.53064274  0.75596289     0.77800
C1022       C  0.62509119  0.53395708  0.78267954     0.80200
Cd1023     Cd  0.69487001  0.57663830  0.75280831     1.37500
O1024       O  0.72246849  0.62774752  0.78762594    -0.54800
O1025       O  0.65904326  0.54259931  0.79113459    -0.53600
C1026       C  0.68531581  0.57540658  0.69717597     0.80200
O1027       O  0.62287796  0.54505392  0.75995632    -0.55900
O1028       O  0.70960811  0.64574053  0.75133902    -0.54400
O1029       O  0.69761029  0.51613452  0.75451624    -0.54400
O1030       O  0.71914383  0.59157667  0.70797731    -0.53600
O1031       O  0.76696152  0.84028319  0.78481571    -0.54800
C1032       C  0.76536232  0.93776037  0.75982499     0.77900
O1033       O  0.87666066  0.91962291  0.74927096    -0.55900
C1034       C  0.78596378  0.82203276  0.78117724     0.77800
C1035       C  0.79253307  0.87479395  0.69786487     0.80200
Cd1036     Cd  0.80512386  0.89227944  0.75272406     1.37500
O1037       O  0.80218088  0.95349939  0.75622076    -0.54800
O1038       O  0.77035836  0.85096504  0.71459921    -0.53600
C1039       C  0.88449736  0.93581678  0.77153292     0.80200
O1040       O  0.82057410  0.90647847  0.70646247    -0.55900
O1041       O  0.74698023  0.90107714  0.76132691    -0.54400
O1042       O  0.81308731  0.83594141  0.76453139    -0.54400
O1043       O  0.85578692  0.93374468  0.78449507    -0.53600
C1044       C  0.99234255  0.93916744  0.85029837     0.89500
C1045       C  0.52249542  0.94935077  0.83306936    -0.50700
C1046       C  0.53060073  0.98235040  0.81979703     0.12500
C1047       C  0.98624407  0.49714508  0.81878646     0.23400
C1048       C  0.00266951  0.97357290  0.86893960    -0.51400
C1049       C  0.99021926  0.50864718  0.84792866     0.12600
C1050       C  0.95741863  0.93506810  0.83397657    -0.51000
C1051       C  0.96436448  0.96811965  0.82172144     0.13100
H1052       H  0.54026999  0.93503350  0.83170477     0.17700
H1053       H  0.49800540  0.53000521  0.80533425     0.03400
H1054       H  0.00464207  0.97181896  0.88994254     0.18000
H1055       H  0.92932399  0.90834318  0.83244730     0.17800
O1056       O  0.57027164  0.74128261  0.89490207    -0.54800
C1057       C  0.65998450  0.71747295  0.88130437     0.77900
O1058       O  0.57374774  0.66345162  0.95096659    -0.55900
C1059       C  0.53315713  0.72090372  0.89692810     0.77800
C1060       C  0.54977854  0.60920307  0.88858465     0.80200
Cd1061     Cd  0.58436790  0.68834289  0.90634683     1.37500
O1062       O  0.62880795  0.70869632  0.86842437    -0.54800
O1063       O  0.54227488  0.63325874  0.87726618    -0.53600
C1064       C  0.59060739  0.69646034  0.96215976     0.80200
O1065       O  0.57237210  0.62152384  0.90831432    -0.55900
O1066       O  0.65679714  0.71566578  0.90576738    -0.54400
O1067       O  0.51983310  0.68540996  0.90206178    -0.54400
O1068       O  0.60454040  0.72573666  0.94759073    -0.53600
O1069       O  0.83572833  0.76467033  0.88416424    -0.54800
C1070       C  0.94563160  0.73039910  0.89592977     0.77900
O1071       O  0.91005235  0.83211598  0.90585306    -0.55900
C1072       C  0.82895513  0.74012959  0.86615516     0.77800
C1073       C  0.87853245  0.75435415  0.95647603     0.80200
Cd1074     Cd  0.89534347  0.76480724  0.90164393     1.37500
O1075       O  0.95901185  0.76662757  0.89391240    -0.54800
O1076       O  0.85727716  0.72774521  0.94036816    -0.53600
C1077       C  0.93634236  0.84519918  0.88856262     0.80200
O1078       O  0.90674778  0.78464931  0.94713399    -0.55900
O1079       O  0.90887435  0.70996649  0.89954068    -0.54400
O1080       O  0.85203328  0.72605165  0.86491010    -0.54400
O1081       O  0.94508112  0.82131832  0.87781459    -0.53600
C1082       C  0.73809594  0.73367421  0.82781446     0.00600
C1083       C  0.94493644  0.95321880  0.15084573     0.89500
C1084       C  0.92725857  0.96676475  0.17251470    -0.50700
C1085       C  0.95435919  0.00083950  0.18444786     0.12500
C1086       C  0.50390186  0.50212850  0.16911640     0.23400
C1087       C  0.96450506  0.98789775  0.13270619    -0.51400
C1088       C  0.50633902  0.50660928  0.13921602     0.12600
C1089       C  0.97877653  0.95029868  0.16385694    -0.51000
C1090       C  0.50989194  0.98121237  0.18232342     0.13100
H1091       H  0.89602860  0.95182976  0.17712906     0.17700
H1092       H  0.52447160  0.52828002  0.18056787     0.03400
H1093       H  0.95748447  0.98619157  0.11205903     0.18000
H1094       H  0.98042443  0.92355896  0.16400143     0.17800
O1095       O  0.67466469  0.91835586  0.22694565    -0.54800
C1096       C  0.56360419  0.82449217  0.21027056     0.77900
O1097       O  0.57029020  0.90323920  0.27562022    -0.55900
C1098       C  0.68884926  0.95418266  0.23212092     0.77800
C1099       C  0.57666790  0.94307177  0.20583414     0.80200
Cd1100     Cd  0.60485881  0.90101890  0.23584735     1.37500
O1101       O  0.59763975  0.83727940  0.22029916    -0.54800
O1102       O  0.59470326  0.92689992  0.19556853    -0.53600
C1103       C  0.58730899  0.89097930  0.29081098     0.80200
O1104       O  0.57263451  0.94093639  0.23034025    -0.55900
O1105       O  0.54826727  0.84619618  0.21268915    -0.54400
O1106       O  0.66447277  0.96517240  0.23864047    -0.54400
O1107       O  0.61147097  0.88207522  0.28057419    -0.53600
O1108       O  0.89299496  0.65280818  0.22147705    -0.54800
C1109       C  0.80143849  0.53835640  0.22681270     0.77900
O1110       O  0.92876513  0.55938362  0.22432794    -0.55900
C1111       C  0.92576758  0.66513282  0.21016756     0.77800
C1112       C  0.89659374  0.59213490  0.28884626     0.80200
Cd1113     Cd  0.88560076  0.58802194  0.23293647     1.37500
O1114       O  0.81825312  0.57315505  0.21921269    -0.54800
O1115       O  0.87511128  0.60380645  0.27794965    -0.53600
C1116       C  0.91361862  0.54519724  0.20222883     0.80200
O1117       O  0.91442702  0.58023185  0.27396229    -0.55900
O1118       O  0.82347883  0.52644798  0.23662027    -0.54400
O1119       O  0.94057567  0.64284766  0.21040578    -0.54400
O1120       O  0.88571446  0.55070241  0.19453700    -0.53600
C1121       C  0.99111484  0.74682005  0.16186588     0.00600
O1122       O  0.89578442  0.75213217  0.11522198    -0.54800
C1123       C  0.79394779  0.76527549  0.09026754     0.77900
O1124       O  0.91557195  0.85950355  0.08172802    -0.55900
C1125       C  0.93247072  0.77223672  0.11062066     0.77800
C1126       C  0.88341275  0.78250914  0.02841866     0.80200
Cd1127     Cd  0.87676739  0.78964270  0.08363016     1.37500
O1128       O  0.80681384  0.74169810  0.09456381    -0.54800
O1129       O  0.86597880  0.75203623  0.04189559    -0.53600
C1130       C  0.90918985  0.86562571  0.10496925     0.80200
O1131       O  0.89682556  0.81456640  0.04042822    -0.55900
O1132       O  0.81903708  0.79897338  0.08334319    -0.54400
O1133       O  0.94188302  0.79692430  0.09287613    -0.54400
O1134       O  0.88643020  0.83645485  0.11833357    -0.53600
O1135       O  0.58110782  0.72397083  0.11718110    -0.54800
C1136       C  0.68106009  0.70728345  0.09594010     0.77900
O1137       O  0.56537649  0.61067510  0.09592791    -0.55900
C1138       C  0.54401539  0.70283001  0.11414452     0.77800
C1139       C  0.58603761  0.67428263  0.03486618     0.80200
Cd1140     Cd  0.59738608  0.67986320  0.09045575     1.37500
O1141       O  0.66826310  0.73141801  0.09486055    -0.48500
O1142       O  0.60214599  0.70695346  0.04656758    -0.53600
C1143       C  0.56902317  0.61232230  0.12054403     0.80200
O1144       O  0.57468305  0.64462003  0.04884398    -0.55900
O1145       O  0.65548935  0.67179135  0.09526579    -0.54400
O1146       O  0.53268833  0.67398500  0.09887645    -0.54400
O1147       O  0.58715395  0.64562849  0.13119702    -0.53600
C1148       C  0.97938721  0.50806609  0.46738722     0.89500
C1149       C  0.51753119  0.53489547  0.48625616    -0.50700
C1150       C  0.52974769  0.51700994  0.50361946     0.12500
C1151       C  0.50050568  0.98174289  0.50259550     0.23400
C1152       C  0.99413359  0.98707730  0.46792870    -0.51400
C1153       C  0.50199778  0.97171634  0.47375798     0.12600
C1154       C  0.94994013  0.98503315  0.50169589    -0.51000
C1155       C  0.96295004  0.96609968  0.51759250     0.13100
H1156       H  0.53269110  0.56619769  0.48381474     0.17700
H1157       H  0.50876781  0.96499467  0.51604157     0.03400
H1158       H  0.99399726  0.98589094  0.44684574     0.18000
H1159       H  0.91998757  0.98055699  0.50229225     0.17800
O1160       O  0.69861019  0.54037529  0.53807069    -0.54800
C1161       C  0.73270522  0.67455074  0.55749782     0.77900
O1162       O  0.63158603  0.53808943  0.56804345    -0.55900
C1163       C  0.73372340  0.54769790  0.54199589     0.77800
C1164       C  0.70667009  0.58759420  0.62393739     0.80200
Cd1165     Cd  0.70036497  0.59159182  0.56788435     1.37500
O1166       O  0.70105753  0.65518186  0.56991725    -0.54800
O1167       O  0.73637626  0.60018543  0.60933619    -0.53600
C1168       C  0.62057129  0.54949110  0.54833915     0.80200
O1169       O  0.67362257  0.57588136  0.61275501    -0.55900
O1170       O  0.74870982  0.65553776  0.54865155    -0.54400
O1171       O  0.75402653  0.57580073  0.55737430    -0.54400
O1172       O  0.64605140  0.58105706  0.53825297    -0.53600
O1173       O  0.73416343  0.87591901  0.55473879    -0.54800
C1174       C  0.75220595  0.78033234  0.56220601     0.77900
O1175       O  0.86389492  0.89746331  0.56670864    -0.55900
C1176       C  0.75486672  0.90573494  0.54133714     0.77800
C1177       C  0.79988791  0.88316789  0.62368551     0.80200
Cd1178     Cd  0.79049127  0.86471293  0.56833967     1.37500
O1179       O  0.78921559  0.80148068  0.56020096    -0.54800
O1180       O  0.77864827  0.84897050  0.61510910    -0.53600
C1181       C  0.86432222  0.89110916  0.54247220     0.80200
O1182       O  0.81662229  0.90912296  0.60684270    -0.55900
O1183       O  0.73275469  0.79800319  0.56603765    -0.54400
O1184       O  0.79122282  0.91643027  0.54055349    -0.54400
O1185       O  0.83128418  0.87056846  0.53128520    -0.53600
C1186       C  0.74132463  0.97676576  0.49480884     0.00600
O1187       O  0.84095729  0.57929576  0.45095445    -0.54800
C1188       C  0.95416197  0.68180265  0.42276703     0.77900
O1189       O  0.92725647  0.56259957  0.42016988    -0.55900
C1190       C  0.82077054  0.54558697  0.44080768     0.77800
C1191       C  0.88362227  0.60042845  0.36218791     0.80200
Cd1192     Cd  0.89443814  0.60155391  0.41731982     1.37500
O1193       O  0.91805994  0.67230991  0.42642279    -0.54800
O1194       O  0.86703263  0.61351017  0.37742295    -0.53600
C1195       C  0.93490745  0.57004883  0.44430686     0.80200
O1196       O  0.90389982  0.58677452  0.37258313    -0.55900
O1197       O  0.96144990  0.65464389  0.41743605    -0.54400
O1198       O  0.83223430  0.53998171  0.41898563    -0.54400
O1199       O  0.92462580  0.59256113  0.45520326    -0.53600
O1200       O  0.55341566  0.80030439  0.42264643    -0.54800
C1201       C  0.65204881  0.92423647  0.44591335     0.77900
O1202       O  0.57010509  0.88726785  0.37405352    -0.55900
C1203       C  0.51876208  0.79171142  0.42961090     0.77800
C1204       C  0.53601608  0.91123032  0.43387185     0.80200
Cd1205     Cd  0.57764396  0.87200571  0.41915867     1.37500
O1206       O  0.63394340  0.88833980  0.45128038    -0.54800
O1207       O  0.55088595  0.89874958  0.45074310    -0.53600
C1208       C  0.59031109  0.87347072  0.36383538     0.80200
O1209       O  0.53960419  0.90456545  0.41014456    -0.55900
O1210       O  0.63736384  0.93449508  0.42774633    -0.54400
O1211       O  0.51262367  0.81992187  0.43348240    -0.54400
O1212       O  0.60506223  0.85896517  0.37918762    -0.53600
C1213       C  0.98714214  0.72215219  0.42386664    -0.13400
C1214       C  0.98172149  0.75312824  0.42485392    -0.28600
H1215       H  0.01689366  0.72641421  0.42191822     0.15600
H1216       H  0.45779617  0.74672859  0.43904911     0.16200
C1217       C  0.70925516  0.94581412  0.47679119    -0.13400
C1218       C  0.68705627  0.95396295  0.46053313    -0.28600
H1219       H  0.70265725  0.91574207  0.47812804     0.15600
H1220       H  0.69400989  0.98403579  0.45852524     0.16200
C1221       C  0.78616785  0.51334778  0.45352458    -0.13400
C1222       C  0.78233405  0.51068322  0.47967064    -0.28600
H1223       H  0.76582618  0.48973625  0.44096051     0.15600
H1224       H  0.80559204  0.53385807  0.49121591     0.16200
C1225       C  0.75906828  0.95685848  0.51142333    -0.13400
C1226       C  0.73740964  0.92649528  0.52713063    -0.28600
H1227       H  0.79055454  0.96693280  0.50988076     0.15600
H1228       H  0.70588671  0.91585464  0.52885918     0.16200
C1229       C  0.75108685  0.71729185  0.55442674    -0.13400
C1230       C  0.73242978  0.73725106  0.56131679    -0.28600
H1231       H  0.78124177  0.73281770  0.54744647     0.15600
H1232       H  0.70189513  0.72152331  0.56755245     0.16200
C1233       C  0.75067020  0.52545553  0.52903637    -0.13400
C1234       C  0.72971924  0.49589220  0.51206956    -0.28600
H1235       H  0.78169419  0.53492718  0.53253616     0.15600
H1236       H  0.69851383  0.48647970  0.50931422     0.16200
C1237       C  0.95384918  0.55292251  0.45976238    -0.13400
C1238       C  0.96460684  0.52815696  0.44965713    -0.28600
H1239       H  0.95736955  0.55940477  0.48055003     0.15600
H1240       H  0.96143093  0.52151208  0.42890497     0.16200
C1241       C  0.51639596  0.93351738  0.44117963    -0.13400
C1242       C  0.51639691  0.94471177  0.46592374    -0.28600
H1243       H  0.50370783  0.94230850  0.42558381     0.15600
H1244       H  0.52895157  0.93499966  0.48115158     0.16200
C1245       C  0.93558589  0.93682124  0.53599378    -0.13400
C1246       C  0.90043954  0.90909793  0.52683419    -0.28600
H1247       H  0.94122133  0.94223982  0.55675794     0.15600
H1248       H  0.89625751  0.90448613  0.50587480     0.16200
C1249       C  0.56733083  0.54017700  0.51822543    -0.13400
C1250       C  0.58040329  0.52619866  0.53724744    -0.28600
H1251       H  0.58579675  0.57010706  0.51232292     0.15600
H1252       H  0.56212868  0.49702319  0.54436996     0.16200
C1253       C  0.72340987  0.71871045  0.09723149    -0.13400
C1254       C  0.75196597  0.75492084  0.09251099    -0.28600
H1255       H  0.73108671  0.69596463  0.10026212     0.15600
H1256       H  0.74418331  0.77741971  0.08871316     0.16200
C1257       C  0.52387509  0.73806251  0.14589813    -0.13400
C1258       C  0.51444924  0.70913904  0.12838551    -0.28600
H1259       H  0.55467304  0.76016955  0.14813376     0.15600
H1260       H  0.48361609  0.68732210  0.12578665     0.16200
C1261       C  0.95734380  0.74464045  0.14486507    -0.13400
C1262       C  0.96396241  0.76972622  0.12549460    -0.28600
H1263       H  0.92708449  0.72262223  0.14870369     0.15600
H1264       H  0.99426050  0.79116575  0.12120621     0.16200
C1265       C  0.90050786  0.59168409  0.31736667    -0.13400
C1266       C  0.87966564  0.60148356  0.33368808    -0.28600
H1267       H  0.92055971  0.58231163  0.32510196     0.15600
H1268       H  0.85971238  0.61102276  0.32601803     0.16200
C1269       C  0.97493085  0.71193500  0.18000157    -0.13400
C1270       C  0.94471506  0.70273181  0.19649086    -0.28600
H1271       H  0.98716908  0.69235945  0.17853342     0.15600
H1272       H  0.93155131  0.72146393  0.19810722     0.16200
C1273       C  0.57960296  0.88809209  0.31899600    -0.13400
C1274       C  0.59671798  0.87441691  0.33551565    -0.28600
H1275       H  0.55990612  0.89820250  0.32636593     0.15600
H1276       H  0.61612515  0.86396093  0.32815645     0.16200
C1277       C  0.74662440  0.02020321  0.23323753    -0.13400
C1278       C  0.73167545  0.98142641  0.23128244    -0.28600
H1279       H  0.74034148  0.52712226  0.22101470     0.15600
H1280       H  0.75138464  0.96923773  0.22957862     0.16200
C1281       C  0.54343846  0.78663626  0.19608621    -0.13400
C1282       C  0.51190502  0.77679624  0.18029664    -0.28600
H1283       H  0.55607310  0.76744577  0.19739120     0.15600
H1284       H  0.50026247  0.79683065  0.17884052     0.16200
C1285       C  0.53114323  0.54236093  0.12486506    -0.13400
C1286       C  0.55159585  0.57727436  0.13628790    -0.28600
H1287       H  0.52995983  0.54012715  0.10370512     0.15600
H1288       H  0.55315904  0.58083783  0.15727728     0.16200
C1289       C  0.91707965  0.91584195  0.13709084    -0.13400
C1290       C  0.92981373  0.90474754  0.11609551    -0.28600
H1291       H  0.88824054  0.89685098  0.14526160     0.15600
H1292       H  0.95815485  0.92454372  0.10760137     0.16200
C1293       C  0.95979227  0.52067731  0.19153400    -0.13400
C1294       C  0.92721187  0.52317024  0.18590813    -0.28600
H1295       H  0.96439080  0.04161912  0.21738997     0.15600
H1296       H  0.91044802  0.50978743  0.16821078     0.16200
C1297       C  0.53967483  0.97869098  0.19893802    -0.13400
C1298       C  0.55875601  0.96058307  0.18939775    -0.28600
H1299       H  0.54217839  0.98716350  0.21933855     0.15600
H1300       H  0.55690613  0.95401916  0.16864370     0.16200
C1301       C  0.87091849  0.75075324  0.98470733    -0.13400
C1302       C  0.88910242  0.78232040  0.00019334    -0.28600
H1303       H  0.84990135  0.72280148  0.99262553     0.15600
H1304       H  0.90877474  0.81030213  0.99168094     0.16200
C1305       C  0.79590337  0.72805196  0.84754036    -0.13400
C1306       C  0.77385058  0.74603569  0.84612820    -0.28600
H1307       H  0.79030679  0.70391959  0.83465816     0.15600
H1308       H  0.78200189  0.77137358  0.85855707     0.16200
C1309       C  0.59433302  0.70101437  0.99070972    -0.13400
C1310       C  0.58085917  0.67023685  0.00638124    -0.28600
H1311       H  0.60910264  0.73026315  0.99894470     0.15600
H1312       H  0.56637632  0.64102498  0.99807104     0.16200
C1313       C  0.01089599  0.73374509  0.89375402    -0.13400
C1314       C  0.97131188  0.71253414  0.89506014    -0.28600
H1315       H  0.52078631  0.76974602  0.89480766     0.15600
H1316       H  0.95734693  0.68122305  0.89717826     0.16200
C1317       C  0.70052187  0.72402795  0.84283372    -0.13400
C1318       C  0.69803840  0.72818278  0.86875164    -0.28600
H1319       H  0.67372255  0.71370841  0.83113585     0.15600
H1320       H  0.72369255  0.73801242  0.88137832     0.16200
C1321       C  0.98310541  0.90167220  0.86330728    -0.13400
C1322       C  0.95369523  0.88579776  0.88054129    -0.28600
H1323       H  0.99809463  0.88590931  0.85691456     0.15600
H1324       H  0.93936933  0.90209368  0.88715486     0.16200
C1325       C  0.51281057  0.55550697  0.85716551    -0.13400
C1326       C  0.53365502  0.56880956  0.87945963    -0.28600
H1327       H  0.00784326  0.57058076  0.84259442     0.15600
H1328       H  0.54094355  0.55018359  0.89092996     0.16200
C1329       C  0.78588589  0.86566992  0.66982748    -0.13400
C1330       C  0.80551386  0.89253991  0.65175014    -0.28600
H1331       H  0.76423087  0.83628361  0.66395620     0.15600
H1332       H  0.82642962  0.92216334  0.65764387     0.16200
C1333       C  0.92465367  0.95317034  0.78248600    -0.13400
C1334       C  0.93316785  0.96944295  0.80629567    -0.28600
H1335       H  0.94574876  0.94688001  0.77267370     0.15600
H1336       H  0.91192626  0.97484090  0.81668299     0.16200
C1337       C  0.77784359  0.78665459  0.79561571    -0.13400
C1338       C  0.74588620  0.76810900  0.81067479    -0.28600
H1339       H  0.79868130  0.77578837  0.79405037     0.15600
H1340       H  0.72544054  0.77958641  0.81163850     0.16200
C1341       C  0.71110445  0.58741862  0.65246206    -0.13400
C1342       C  0.68017289  0.57411490  0.66862331    -0.28600
H1343       H  0.74083264  0.59915295  0.66036866     0.15600
H1344       H  0.65037318  0.56197109  0.66077273     0.16200
C1345       C  0.59044714  0.51200613  0.79901892    -0.13400
C1346       C  0.55512826  0.50896017  0.79387739    -0.28600
H1347       H  0.59499796  0.49998253  0.81680253     0.15600
H1348       H  0.55138073  0.52374634  0.77728478     0.16200
C1349       C  0.76334251  0.99962164  0.76256451    -0.13400
C1350       C  0.74435326  0.96051876  0.76119631    -0.28600
H1351       H  0.78513295  0.51907994  0.75383689     0.15600
H1352       H  0.71229577  0.94460579  0.76024232     0.16200
C1353       C  0.72915846  0.69182563  0.78668344    -0.13400
C1354       C  0.72905162  0.69638184  0.81273228    -0.28600
H1355       H  0.73389383  0.71522020  0.77375692     0.15600
H1356       H  0.72184513  0.67119555  0.82468190     0.16200
loop_ 
_geom_bond_atom_site_label_1 
_geom_bond_atom_site_label_2 
_geom_bond_distance 
_geom_bond_site_symmetry_2 
_ccdc_geom_bond_type 
O1            C4   1.268       .  A
O1           Cd6   2.508       .  S
C2           O11   1.266       .  A
C2            O7   1.262       .  A
C2          C336   1.480       .  S
O3            C9   1.263       .  A
O3           Cd6   2.478       .  S
C4           O12   1.264       .  A
C4          C671   1.482       .  S
C5           O10   1.268       .  A
C5            O8   1.266       .  A
C5          C328   1.469       .  S
Cd6          O13   2.470       .  S
Cd6          O12   2.468       .  S
Cd6          O11   2.498       .  S
Cd6           O7   2.486       .  S
Cd6          O10   2.458       .  S
Cd6           O8   2.444       .  S
C9           O13   1.264       .  A
C9          C325   1.475       .  S
O14          C17   1.265       .  A
O14         Cd19   2.501       .  S
C15          O24   1.264       .  A
C15          O20   1.265       .  A
C15         C333   1.478       .  S
O16          C22   1.270       .  A
O16         Cd19   2.482       .  S
C17          O25   1.267       .  A
C17         C320   1.485       .  S
C18          O23   1.268       .  A
C18          O21   1.262       .  A
C18         C312   1.481       .  S
Cd19         O26   2.427       .  S
Cd19         O25   2.494       .  S
Cd19         O24   2.489       .  S
Cd19         O20   2.480       .  S
Cd19         O23   2.519       .  S
Cd19         O21   2.457       .  S
C22          O26   1.264       .  A
C22         C316   1.469       .  S
C27          C33   1.529       .  S
C27          C31   1.530       .  S
C27         C304   1.505       .  S
C27         C706   1.532       .  S
C28         C705   1.533   1_455  S
C28          H35   1.086       .  S
C28          C29   1.367       .  D
C29        C1047   1.533   1_455  S
C29         C668   1.471       .  S
C30          C32   1.548   1_565  S
C30        C1046   1.543       .  S
C30         C373   1.538       .  S
C30         H714   1.108   1_565  S
C31          H37   1.085       .  S
C31         C371   1.371       .  D
C32         C370   1.362   1_545  D
C32         C986   1.479       .  S
C33          H38   1.087       .  S
C33          C34   1.363       .  D
C34         C369   1.536       .  S
C34         C317   1.479       .  S
H36         C708   1.108       .  S
O39          C42   1.268       .  A
O39         Cd44   2.491       .  S
C40          O49   1.262       .  A
C40          O45   1.269       .  A
C40         C301   1.483       .  S
O41          C47   1.266       .  A
O41         Cd44   2.486       .  S
C42          O50   1.264       .  A
C42         C974   1.476       .  S
C43          O48   1.268       .  A
C43          O46   1.265       .  A
C43         C309   1.469       .  S
Cd44         O51   2.477       .  S
Cd44         O50   2.449       .  S
Cd44         O49   2.461       .  S
Cd44         O45   2.525       .  S
Cd44         O48   2.443       .  S
Cd44         O46   2.446       .  S
C47          O51   1.265       .  A
C47         C292   1.479       .  S
O52          C55   1.271       .  A
O52         Cd57   2.484       .  S
C53          O62   1.264       .  A
C53          O58   1.270       .  A
C53         C297   1.475       .  S
O54          C60   1.269       .  A
O54         Cd57   2.450       .  S
C55          O63   1.262       .  A
C55         C288   1.480       .  S
C56          O61   1.267       .  A
C56          O59   1.265       .  A
C56         C284   1.471       .  S
Cd57         O64   2.419       .  S
Cd57         O63   2.454       .  S
Cd57         O62   2.419       .  S
Cd57         O58   2.491       .  S
Cd57         O61   2.427       .  S
Cd57         O59   2.464       .  S
C60          O64   1.265       .  A
C60         C305   1.465       .  S
C65         C289   1.534       .  S
C65         C300   1.538       .  S
C65         C321   1.536       .  S
C65         C337   1.533       .  S
C66          C67   1.530       .  S
C66          C72   1.528       .  S
C66          C70   1.527       .  S
C66         C272   1.495       .  S
C67          H74   1.086       .  S
C67          C68   1.369       .  D
C68        C1086   1.536       .  S
C68         C615   1.474       .  S
C69          C71   1.544       .  S
C69        C1085   1.541       .  S
C69         C412   1.535   1_645  S
C69          H75   1.110   1_655  S
C70          H76   1.087       .  S
C70        C1088   1.359       .  D
C71        C1087   1.359   1_545  D
C71         C268   1.470   1_655  S
C72          H77   1.087       .  S
C72         C751   1.363       .  D
C73         C408   1.539       .  S
C73         C750   1.362   1_455  D
C73         C280   1.474       .  S
O78          C81   1.267       .  A
O78         Cd83   2.493       .  S
C79          O88   1.266       .  A
C79          O84   1.262       .  A
C79         C264   1.482       .  S
O80          C86   1.263       .  A
O80         Cd83   2.464       .  S
C81          O89   1.263       .  A
C81         C261   1.477       .  S
C82          O87   1.269       .  A
C82          O85   1.266       .  A
C82         C281   1.466       .  S
Cd83         O90   2.505       .  S
Cd83         O89   2.457       .  S
Cd83         O88   2.517       .  S
Cd83         O84   2.481       .  S
Cd83         O87   2.469       .  S
Cd83         O85   2.422       .  S
C86          O90   1.264       .  A
C86         C256   1.477       .  S
O91          C94   1.266       .  A
O91         Cd96   2.511       .  S
C92         O101   1.262       .  A
C92          O97   1.267       .  A
C92         C599   1.478       .  S
O93          C99   1.271       .  A
O93         Cd96   2.499       .  S
C94         O102   1.263       .  A
C94         C253   1.480       .  S
C95         O100   1.264       .  A
C95          O98   1.262       .  A
C95         C248   1.479       .  S
Cd96        O103   2.416       .  S
Cd96        O102   2.472       .  S
Cd96        O101   2.452       .  S
Cd96         O97   2.506       .  S
Cd96        O100   2.485       .  S
Cd96         O98   2.489       .  S
C99         O103   1.266       .  A
C99         C277   1.474       .  S
C104        C244   1.532       .  S
C104        C252   1.531       .  S
C104        C918   1.532       .  S
C104        C943   1.530       .  S
O105        C108   1.259       .  A
O105       Cd110   2.443       .  S
C106        O115   1.262       .  A
C106        O111   1.269       .  A
C106        C237   1.475       .  S
O107        C113   1.265       .  A
O107       Cd110   2.407       .  S
C108        O116   1.266       .  A
C108        C245   1.479       .  S
C109        O114   1.259       .  A
C109        O112   1.267       .  A
C109        C285   1.466   1_554  S
Cd110       O117   2.411       .  S
Cd110       O116   2.516       .  S
Cd110       O115   2.448       .  S
Cd110       O111   2.488       .  S
Cd110       O114   2.426       .  S
Cd110       O112   2.491       .  S
C113        O117   1.268       .  A
C113        C273   1.453       .  S
O118        C121   1.268       .  A
O118       Cd123   2.512       .  S
C119        O128   1.264       .  A
C119        O124   1.270       .  A
C119        C236   1.475       .  S
O120        C126   1.267       .  A
O120       Cd123   2.407       .  S
C121        O129   1.263       .  A
C121        C241   1.485       .  S
C122        O127   1.264       .  A
C122        O125   1.266       .  A
C122        C293   1.480       .  S
Cd123       O130   2.470       .  S
Cd123       O129   2.466       .  S
Cd123       O128   2.447       .  S
Cd123       O124   2.478       .  S
Cd123       O127   2.481       .  S
Cd123       O125   2.485       .  S
C126        O130   1.265       .  A
C126        C269   1.470       .  S
C131        C221   1.501       .  S
C131        C810   1.531       .  S
C131        C476   1.527   1_545  S
C131        C474   1.529   1_545  S
C132        C809   1.527   1_455  S
C132        H139   1.087       .  S
C132        C133   1.365       .  D
C133        C473   1.553   1_545  S
C133        C232   1.484       .  S
C134        C136   1.542       .  S
C134        C472   1.545       .  S
C134        C816   1.535   1_455  S
C134        H140   1.109       .  S
C135        C470   1.525       .  S
C135        H141   1.083       .  S
C135        C814   1.372       .  D
C136        C813   1.370   1_455  D
C136        C225   1.479       .  S
C137        C470   1.526       .  S
C137        H142   1.087       .  S
C137        C138   1.361       .  D
C138        C812   1.541       .  S
C138        C228   1.481       .  S
O143        C146   1.262       .  A
O143       Cd148   2.508       .  S
C144        O153   1.265       .  A
C144        O149   1.263       .  A
C144        C212   1.487       .  S
O145        C151   1.267       .  A
O145       Cd148   2.455       .  S
C146        O154   1.265       .  A
C146        C216   1.486       .  S
C147        O152   1.262       .  A
C147        O150   1.262       .  A
C147        C324   1.475       .  S
Cd148       O155   2.453       .  S
Cd148       O154   2.520       .  S
Cd148       O153   2.513       .  S
Cd148       O149   2.498       .  S
Cd148       O152   2.487       .  S
Cd148       O150   2.482       .  S
C151        O155   1.270       .  A
C151        C233   1.476       .  S
O156        C159   1.266       .  A
O156       Cd161   2.529       .  S
C157        O166   1.265       .  A
C157        O162   1.265       .  A
C157        C213   1.486       .  S
O158        C164   1.268       .  A
O158       Cd161   2.477       .  S
C159        O167   1.262       .  A
C159        C209   1.491       .  S
C160        O165   1.263       .  A
C160        O163   1.264       .  A
C160        C313   1.484       .  S
Cd161       O168   2.442       .  S
Cd161       O167   2.517       .  S
Cd161       O166   2.497       .  S
Cd161       O162   2.514       .  S
Cd161       O165   2.502       .  S
Cd161       O163   2.495       .  S
C164        O168   1.266       .  A
C164        C229   1.471       .  S
C169        C200   1.550       .  S
C169        C208   1.540       .  S
C169        C544   1.548       .  S
C169        C556   1.540       .  S
O170        C173   1.262       .  A
O170       Cd175   2.473       .  S
C171        O180   1.269       .  A
C171        O176   1.264       .  A
C171        C196   1.478       .  S
O172        C178   1.268       .  A
O172       Cd175   2.443       .  S
C173        O181   1.267       .  A
C173        C204   1.485       .  S
C174        O179   1.263       .  A
C174        O177   1.266       .  A
C174        C249   1.477       .  S
Cd175       O182   2.419       .  S
Cd175       O181   2.514       .  S
Cd175       O180   2.486       .  S
Cd175       O176   2.455       .  S
Cd175       O179   2.471       .  S
Cd175       O177   2.494       .  S
C178        O182   1.264       .  A
C178        C220   1.462       .  S
O183        C186   1.272       .  A
O183       Cd188   2.537       .  S
C184        O193   1.261       .  A
C184        O189   1.272       .  A
C184        C201   1.491       .  S
O185        C191   1.263       .  A
O185       Cd188   2.451       .  S
C186        O194   1.259       .  A
C186        C875   1.484   1_455  S
C187        O192   1.267       .  A
C187        O190   1.268       .  A
C187        C224   1.463       .  S
Cd188       O195   2.514       .  S
Cd188       O194   2.449       .  S
Cd188       O193   2.459       .  S
Cd188       O189   2.565       .  S
Cd188       O192   2.427       .  S
Cd188       O190   2.428       .  S
C191        O195   1.267       .  A
C191        C257   1.482       .  S
C196        H198   1.086       .  S
C196        C197   1.349       .  D
C197        C864   1.479       .  S
C197        H877   1.086       .  S
H199        C875   1.087       .  S
C200        H202   1.087       .  S
C200        C201   1.349       .  D
C201        H203   1.086       .  S
C204        H206   1.084       .  S
C204        C205   1.355   1_545  D
C205        C508   1.539       .  S
C205        H207   1.088       .  S
C208        H210   1.088       .  S
C208        C209   1.356       .  D
C209        H211   1.086       .  S
C212        H214   1.086       .  S
C212        C213   1.349       .  D
C213        H215   1.086       .  S
C216        H218   1.086       .  S
C216        C217   1.353   1_545  D
C217        C508   1.537       .  S
C217        H219   1.087       .  S
C220        H222   1.087       .  S
C220        C221   1.339       .  D
C221        H223   1.087       .  S
C224        H226   1.082       .  S
C224        C225   1.343       .  D
C225        H227   1.086       .  S
C228        H230   1.086       .  S
C228        C229   1.345       .  D
C229        H231   1.088       .  S
C232        H234   1.087       .  S
C232        C233   1.341       .  D
C233        H235   1.083   1_545  S
C236        H238   1.087       .  S
C236        C237   1.340       .  D
C237        H239   1.087       .  S
C240        C782   1.537   1_455  S
C240        H242   1.088   1_455  S
C240        C241   1.354       .  D
C241        H243   1.083       .  S
C244        H246   1.088       .  S
C244        C245   1.353       .  D
C245        H247   1.084       .  S
C248        H250   1.087       .  S
C248        C249   1.345       .  D
C249        H251   1.087       .  S
C252        H254   1.088       .  S
C252        C253   1.351       .  D
C253        H255   1.086       .  S
C256        H258   1.087       .  S
C256        C257   1.347       .  D
C257        H259   1.086       .  S
C260        C431   1.476       .  S
C260        H601   1.086       .  S
C260        C261   1.348       .  D
C261        H263   1.086       .  S
H262        C599   1.086       .  S
C264        H266   1.086       .  S
C264        C265   1.353       .  D
C265        C782   1.534   1_455  S
C265        H267   1.087       .  S
C268        H270   1.088       .  S
C268        C269   1.338       .  D
C269        H271   1.086       .  S
C272        H274   1.087       .  S
C272        C273   1.338       .  D
C273        H275   1.088       .  S
C276        H617   1.086       .  S
C276        C277   1.346       .  D
C276        C407   1.491       .  S
C277        H279   1.085       .  S
H278        C615   1.086       .  S
C280        H282   1.086       .  S
C280        C281   1.342       .  D
C281        H283   1.088       .  S
C284        H286   1.086       .  S
C284        C285   1.339       .  D
C285        H287   1.087       .  S
C288        H290   1.086       .  S
C288        C289   1.341       .  D
C289        H291   1.087       .  S
C292        H294   1.087       .  S
C292        C293   1.345   1_556  D
C293        H295   1.087   1_554  S
C296        C720   1.472       .  S
C296        H976   1.087       .  S
C296        C297   1.347       .  D
C297        H299   1.087       .  S
H298        C974   1.087       .  S
C300        H302   1.087       .  S
C300        C301   1.347       .  D
C301        H303   1.086       .  S
C304        H306   1.087       .  S
C304        C305   1.341       .  D
C305        H307   1.088       .  S
C308        H988   1.087       .  S
C308        C309   1.342       .  D
C308        C710   1.480       .  S
C309        H311   1.083       .  S
H310        C986   1.088       .  S
C312        H314   1.087       .  S
C312        C313   1.345       .  D
C313        H315   1.086       .  S
C316        H318   1.087       .  S
C316        C317   1.342       .  D
C317        H319   1.086       .  S
C320        H322   1.086       .  S
C320        C321   1.353       .  D
C321        H323   1.087       .  S
C324        H326   1.087       .  S
C324        C325   1.344       .  D
C325        H327   1.087       .  S
C328        H330   1.086   1_545  S
C328        C329   1.344       .  D
C329        H331   1.086       .  S
C329        C368   1.481   1_545  S
C332        C343   1.480       .  S
C332        H673   1.086       .  S
C332        C333   1.348       .  D
C333        H335   1.087       .  S
H334        C671   1.086       .  S
C336        H338   1.086       .  S
C336        C337   1.354       .  D
C337        H339   1.087       .  S
O340        C343   1.269       .  A
O340       Cd345   2.497       .  S
C341        O350   1.261       .  A
C341        O346   1.268       .  A
C341        C675   1.485       .  S
O342        C348   1.264       .  A
O342       Cd345   2.472       .  S
C343        O351   1.264       .  A
C344        O349   1.268       .  A
C344        O347   1.264       .  A
C344        C667   1.463       .  S
Cd345       O352   2.458       .  S
Cd345       O351   2.447       .  S
Cd345       O350   2.481       .  S
Cd345       O346   2.512       .  S
Cd345       O349   2.440       .  S
Cd345       O347   2.428       .  S
C348        O352   1.265       .  A
C348        C664   1.474       .  S
O353        C356   1.268       .  A
O353       Cd358   2.498       .  S
C354        O363   1.266       .  A
C354        O359   1.267       .  A
C354        C672   1.481       .  S
O355        C361   1.264       .  A
O355       Cd358   2.459       .  S
C356        O364   1.262       .  A
C356        C659   1.484       .  S
C357        O362   1.268       .  A
C357        O360   1.263       .  A
C357        C651   1.475       .  S
Cd358       O365   2.490       .  S
Cd358       O364   2.481       .  S
Cd358       O363   2.486       .  S
Cd358       O359   2.481       .  S
Cd358       O362   2.491       .  S
Cd358       O360   2.456       .  S
C361        O365   1.265       .  A
C361        C655   1.473       .  S
C366       C1045   1.532       .  S
C366        C372   1.529       .  S
C366        C370   1.530       .  S
C366        C643   1.504       .  S
C367       C1044   1.531   1_455  S
C367        H374   1.086       .  S
C367        C368   1.369       .  D
C368        C708   1.540   1_565  S
C369        C707   1.536       .  S
C369        C371   1.542       .  S
C369       H1053   1.111       .  S
C370        H376   1.087       .  S
C371       C1325   1.481       .  S
C372        H377   1.087       .  S
C372        C373   1.362       .  D
C373        C656   1.481       .  S
H375       C1047   1.111       .  S
O378        C381   1.264       .  A
O378       Cd383   2.454       .  S
C379        O388   1.263       .  A
C379        O384   1.268       .  A
C379        C640   1.484       .  S
O380        C386   1.264       .  A
O380       Cd383   2.478       .  S
C381        O389   1.266       .  A
C381       C1313   1.476       .  S
C382        O387   1.265       .  A
C382        O385   1.266       .  A
C382        C648   1.463       .  S
Cd383       O390   2.499       .  S
Cd383       O389   2.487       .  S
Cd383       O388   2.477       .  S
Cd383       O384   2.505       .  S
Cd383       O387   2.419       .  S
Cd383       O385   2.459       .  S
C386        O390   1.266       .  A
C386        C631   1.483       .  S
O391        C394   1.260       .  A
O391       Cd396   2.479       .  S
C392        O401   1.263       .  A
C392        O397   1.264       .  A
C392        C636   1.475       .  S
O393        C399   1.267       .  A
O393       Cd396   2.429       .  S
C394        O402   1.265       .  A
C394        C627   1.479       .  S
C395        O400   1.262       .  A
C395        O398   1.262       .  A
C395        C623   1.477       .  S
Cd396       O403   2.442       .  S
Cd396       O402   2.506       .  S
Cd396       O401   2.468       .  S
Cd396       O397   2.483       .  S
Cd396       O400   2.468       .  S
Cd396       O398   2.497       .  S
C399        O403   1.269       .  A
C399        C644   1.464       .  S
C404        C628   1.537       .  S
C404        C639   1.535       .  S
C404        C660   1.537       .  S
C404        C676   1.539       .  S
C405        C406   1.529       .  S
C405        C411   1.525       .  S
C405        C409   1.522       .  S
C405        C611   1.501       .  S
C406        H413   1.085       .  S
C406        C407   1.375   1_565  D
C407        C747   1.548       .  S
C408        C746   1.542   1_455  S
C408        C410   1.544       .  S
C408        H414   1.110       .  S
C409        H415   1.088       .  S
C409        C749   1.356   1_565  D
C410        C748   1.359       .  D
C410        C607   1.465       .  S
C411        H416   1.087       .  S
C411       C1090   1.363       .  D
C412       C1089   1.362   1_455  D
C412        C619   1.475       .  S
O417        C420   1.266       .  A
O417       Cd422   2.485       .  S
C418        O427   1.263       .  A
C418        O423   1.266       .  A
C418        C603   1.481       .  S
O419        C425   1.263       .  A
O419       Cd422   2.482       .  S
C420        O428   1.263       .  A
C420        C600   1.476       .  S
C421        O426   1.269       .  A
C421        O424   1.266       .  A
C421        C620   1.465       .  S
Cd422       O429   2.477       .  S
Cd422       O428   2.472       .  S
Cd422       O427   2.493       .  S
Cd422       O423   2.496       .  S
Cd422       O426   2.453       .  S
Cd422       O424   2.425       .  S
C425        O429   1.263       .  A
C425        C595   1.476       .  S
O430        C433   1.264       .  A
O430       Cd435   2.501       .  S
C431        O440   1.263       .  A
C431        O436   1.267       .  A
O432        C438   1.268       .  A
O432       Cd435   2.437       .  S
C433        O441   1.262       .  A
C433        C592   1.479       .  S
C434        O439   1.262       .  A
C434        O437   1.263       .  A
C434        C587   1.472       .  S
Cd435       O442   2.436       .  S
Cd435       O441   2.483       .  S
Cd435       O440   2.457       .  S
Cd435       O436   2.488       .  S
Cd435       O439   2.475       .  S
Cd435       O437   2.465       .  S
C438        O442   1.266       .  A
C438        C616   1.466       .  S
C443       C1257   1.535       .  S
C443        C583   1.537       .  S
C443        C591   1.530       .  S
C443       C1282   1.534       .  S
O444        C447   1.274       .  A
O444       Cd449   2.518       .  S
C445        O454   1.262       .  A
C445        O450   1.276       .  A
C445        C576   1.474       .  S
O446        C452   1.271       .  A
O446       Cd449   2.411       .  S
C447        O455   1.263       .  A
C447        C584   1.481       .  S
C448        O453   1.266       .  A
C448        O451   1.269       .  A
C448        C624   1.474       .  S
Cd449       O456   2.440       .  S
Cd449       O455   2.431       .  S
Cd449       O454   2.404       .  S
Cd449       O450   2.494       .  S
Cd449       O453   2.443       .  S
Cd449       O451   2.477       .  S
C452        O456   1.265       .  A
C452        C612   1.466       .  S
O457        C460   1.273       .  A
O457       Cd462   2.524       .  S
C458        O467   1.260       .  A
C458        O463   1.274       .  A
C458        C575   1.474       .  S
O459        C465   1.270       .  A
O459       Cd462   2.392       .  S
C460        O468   1.261       .  A
C460        C580   1.480       .  S
C461        O466   1.264       .  A
C461        O464   1.268       .  A
C461        C632   1.480       .  S
Cd462       O469   2.453       .  S
Cd462       O468   2.429       .  S
Cd462       O467   2.420       .  S
Cd462       O463   2.501       .  S
Cd462       O466   2.458       .  S
Cd462       O464   2.505       .  S
C465        O469   1.266       .  A
C465        C608   1.465       .  S
C470       C1149   1.529       .  S
C470        C560   1.499       .  S
C471       C1148   1.529   1_455  S
C471        H478   1.087       .  S
C471        C472   1.361       .  D
C472        C571   1.474       .  S
C473       C1155   1.542   1_455  S
C473        C475   1.544       .  S
C473        H479   1.108       .  S
C474        H480   1.083       .  S
C474       C1153   1.371       .  D
C475       C1152   1.367   1_455  D
C475        C564   1.481       .  S
C476        H481   1.087       .  S
C476        C477   1.361       .  D
C477       C1151   1.531       .  S
C477        C567   1.470       .  S
O482        C485   1.261       .  A
O482       Cd487   2.505       .  S
C483        O492   1.261       .  A
C483        O488   1.269       .  A
C483        C551   1.482       .  S
O484        C490   1.267       .  A
O484       Cd487   2.445       .  S
C485        O493   1.267       .  A
C485        C555   1.486       .  S
C486        O491   1.262       .  A
C486        O489   1.262       .  A
C486        C663   1.473       .  S
Cd487       O494   2.415       .  S
Cd487       O493   2.514       .  S
Cd487       O492   2.467       .  S
Cd487       O488   2.521       .  S
Cd487       O491   2.471       .  S
Cd487       O489   2.477       .  S
C490        O494   1.269       .  A
C490        C572   1.468       .  S
O495        C498   1.267       .  A
O495       Cd500   2.532       .  S
C496        O505   1.260       .  A
C496        O501   1.268       .  A
C496        C552   1.481       .  S
O497        C503   1.268       .  A
O497       Cd500   2.430       .  S
C498        O506   1.261       .  A
C498        C548   1.486       .  S
C499        O504   1.261       .  A
C499        O502   1.265       .  A
C499        C652   1.476       .  S
Cd500       O507   2.425       .  S
Cd500       O506   2.478       .  S
Cd500       O505   2.463       .  S
Cd500       O501   2.524       .  S
Cd500       O504   2.469       .  S
Cd500       O502   2.486       .  S
C503        O507   1.268       .  A
C503        C568   1.462       .  S
C508        C539   1.533       .  S
C508        C547   1.535       .  S
O509        C512   1.273       .  A
O509       Cd514   2.524       .  S
C510        O519   1.262       .  A
C510        O515   1.275       .  A
C510        C535   1.483       .  S
O511        C517   1.269       .  A
O511       Cd514   2.443       .  S
C512        O520   1.263       .  A
C512        C543   1.489       .  S
C513        O518   1.269       .  A
C513        O516   1.269       .  A
C513        C588   1.472       .  S
Cd514       O521   2.386       .  S
Cd514       O520   2.466       .  S
Cd514       O519   2.428       .  S
Cd514       O515   2.532       .  S
Cd514       O518   2.439       .  S
Cd514       O516   2.449       .  S
C517        O521   1.263       .  A
C517        C559   1.455       .  S
O522        C525   1.271       .  A
O522       Cd527   2.513       .  S
C523        O532   1.262       .  A
C523        O528   1.272       .  A
C523        C540   1.479       .  S
O524        C530   1.265       .  A
O524       Cd527   2.463       .  S
C525        O533   1.259       .  A
C525       C1214   1.479   1_455  S
C526        O531   1.267       .  A
C526        O529   1.267       .  A
C526        C563   1.460       .  S
Cd527       O534   2.482       .  S
Cd527       O533   2.442       .  S
Cd527       O532   2.433       .  S
Cd527       O528   2.523       .  S
Cd527       O531   2.414       .  S
Cd527       O529   2.434       .  S
C530        O534   1.266       .  A
C530        C596   1.477       .  S
C535        H537   1.087       .  S
C535        C536   1.341       .  D
C536       C1203   1.484       .  S
C536       H1216   1.086       .  S
H538       C1214   1.087       .  S
C539        H541   1.087       .  S
C539        C540   1.345       .  D
C540        H542   1.087       .  S
C543        H545   1.084       .  S
C543        C544   1.350       .  D
C544        H546   1.086       .  S
C547        H549   1.088       .  S
C547        C548   1.354       .  D
C548        H550   1.086       .  S
C551        H553   1.087       .  S
C551        C552   1.342       .  D
C552        H554   1.087       .  S
C555        H557   1.085       .  S
C555        C556   1.357       .  D
C556        H558   1.087       .  S
C559        H561   1.088       .  S
C559        C560   1.337       .  D
C560        H562   1.087       .  S
C563        H565   1.082   1_455  S
C563        C564   1.345       .  D
C564        H566   1.086       .  S
C567        H569   1.086       .  S
C567        C568   1.341       .  D
C568        H570   1.088       .  S
C571        H573   1.088       .  S
C571        C572   1.339       .  D
C572        H574   1.084       .  S
C575        H577   1.087       .  S
C575        C576   1.335       .  D
C576        H578   1.087       .  S
C579       C1121   1.537   1_455  S
C579        H581   1.087       .  S
C579        C580   1.344       .  D
C580        H582   1.087   1_455  S
C583        H585   1.087       .  S
C583        C584   1.344       .  D
C584        H586   1.087       .  S
C587        H589   1.087       .  S
C587        C588   1.343       .  D
C588        H590   1.087       .  S
C591        H593   1.088       .  S
C591        C592   1.350       .  D
C592        H594   1.086       .  S
C595        H597   1.087       .  S
C595        C596   1.346       .  D
C596        H598   1.086       .  S
C599        C600   1.348   1_545  D
C600        H602   1.087       .  S
C603        H605   1.086       .  S
C603        C604   1.351       .  D
C604       C1121   1.532   1_455  S
C604        H606   1.088   1_455  S
C607        H609   1.088       .  S
C607        C608   1.335       .  D
C608        H610   1.085       .  S
C611        H613   1.088       .  S
C611        C612   1.336       .  D
C612        H614   1.087       .  S
C615        C616   1.341       .  D
C616        H618   1.086       .  S
C619        H621   1.086       .  S
C619        C620   1.342       .  D
C620        H622   1.087       .  S
C623        H625   1.086   1_556  S
C623        C624   1.344   1_556  D
C624        H626   1.087       .  S
C627        H629   1.084       .  S
C627        C628   1.354       .  D
C628        H630   1.088       .  S
C631        H633   1.087       .  S
C631        C632   1.346   1_556  D
C632        H634   1.087       .  S
C635       C1059   1.475       .  S
C635       H1315   1.087       .  S
C635        C636   1.345       .  D
C636        H638   1.087       .  S
H637       C1313   1.086       .  S
C639        H641   1.089       .  S
C639        C640   1.346       .  D
C640        H642   1.082       .  S
C643        H645   1.087       .  S
C643        C644   1.342       .  D
C644        H646   1.087       .  S
C647       H1327   1.086       .  S
C647        C648   1.346       .  D
C647       C1049   1.484   1_455  S
C648        H650   1.081       .  S
H649       C1325   1.086       .  S
C651        H653   1.087       .  S
C651        C652   1.341       .  D
C652        H654   1.087       .  S
C655        H657   1.087       .  S
C655        C656   1.344       .  D
C656        H658   1.086       .  S
C659        H661   1.084       .  S
C659        C660   1.348       .  D
C660        H662   1.089       .  S
C663        H665   1.087       .  S
C663        C664   1.344       .  D
C664        H666   1.087       .  S
C667        H669   1.086       .  S
C667        C668   1.338       .  D
C668        H670   1.087       .  S
C671        C672   1.348   1_545  D
C672        H674   1.087       .  S
C675        H677   1.086       .  S
C675        C676   1.345       .  D
C676        H678   1.087       .  S
O679        C682   1.267       .  A
O679       Cd684   2.498       .  S
C680        O689   1.265       .  A
C680        O685   1.261       .  A
C680       C1014   1.479       .  S
O681        C687   1.262       .  A
O681       Cd684   2.476       .  S
C682        O690   1.264       .  A
C682       C1349   1.480   1_545  S
C683        O688   1.267       .  A
C683        O686   1.267       .  A
C683       C1006   1.472       .  S
Cd684       O691   2.461       .  S
Cd684       O690   2.465       .  S
Cd684       O689   2.503       .  S
Cd684       O685   2.470       .  S
Cd684       O688   2.449       .  S
Cd684       O686   2.457       .  S
C687        O691   1.263       .  A
C687       C1003   1.472       .  S
O692        C695   1.264       .  A
O692       Cd697   2.490       .  S
C693        O702   1.264       .  A
C693        O698   1.267       .  A
C693       C1011   1.479       .  S
O694        C700   1.271       .  A
O694       Cd697   2.472       .  S
C695        O703   1.268       .  A
C695        C998   1.484       .  S
C696        O701   1.267       .  A
C696        O699   1.262       .  A
C696        C990   1.476       .  S
Cd697       O704   2.401       .  S
Cd697       O703   2.502       .  S
Cd697       O702   2.486       .  S
Cd697       O698   2.482       .  S
Cd697       O701   2.501       .  S
Cd697       O699   2.454       .  S
C700        O704   1.264       .  A
C700        C994   1.464       .  S
C705        C711   1.528       .  S
C705        C709   1.522       .  S
C705        C982   1.498       .  S
C706        H713   1.086       .  S
C706        C707   1.368       .  D
C707       C1346   1.478       .  S
C708       C1051   1.531   1_445  S
C708        C710   1.546       .  S
C709        H715   1.083       .  S
C709       C1049   1.370       .  D
C710       C1048   1.367   1_545  D
C711        H716   1.087       .  S
C711        C712   1.363       .  D
C712       C1047   1.534       .  S
C712        C995   1.476       .  S
O717        C720   1.267       .  A
O717       Cd722   2.474       .  S
C718        O727   1.263       .  A
C718        O723   1.269       .  A
C718        C979   1.479       .  S
O719        C725   1.267       .  A
O719       Cd722   2.497       .  S
C720        O728   1.263       .  A
C721        O726   1.270       .  A
C721        O724   1.264       .  A
C721        C987   1.470       .  S
Cd722       O729   2.478       .  S
Cd722       O728   2.448       .  S
Cd722       O727   2.457       .  S
Cd722       O723   2.506       .  S
Cd722       O726   2.439       .  S
Cd722       O724   2.439       .  S
C725        O729   1.265       .  A
C725        C970   1.482       .  S
O730        C733   1.270       .  A
O730       Cd735   2.502       .  S
C731        O740   1.264       .  A
C731        O736   1.270       .  A
C731        C975   1.475       .  S
O732        C738   1.270       .  A
O732       Cd735   2.431       .  S
C733        O741   1.261       .  A
C733        C966   1.479       .  S
C734        O739   1.267       .  A
C734        O737   1.266       .  A
C734        C962   1.476       .  S
Cd735       O742   2.398       .  S
Cd735       O741   2.453       .  S
Cd735       O740   2.439       .  S
Cd735       O736   2.479       .  S
Cd735       O739   2.458       .  S
Cd735       O737   2.470       .  S
C738        O742   1.263       .  A
C738        C983   1.458       .  S
C743        C967   1.534       .  S
C743        C978   1.534       .  S
C743        C999   1.534       .  S
C743       C1015   1.529       .  S
C744        C745   1.532       .  S
C744        C750   1.525       .  S
C744        C748   1.522   1_655  S
C744        C950   1.495       .  S
C745        H752   1.085       .  S
C745        C746   1.371       .  D
C746       C1293   1.484       .  S
C747       C1090   1.542   1_545  S
C747        C749   1.544       .  S
C747        H753   1.110       .  S
C748        H754   1.087       .  S
C749        C946   1.467       .  S
C750        H755   1.087       .  S
C751       C1086   1.532       .  S
C751        C958   1.474       .  S
O756        C759   1.264       .  A
O756       Cd761   2.471       .  S
C757        O766   1.266       .  A
C757        O762   1.263       .  A
C757        C942   1.478       .  S
O758        C764   1.264       .  A
O758       Cd761   2.473       .  S
C759        O767   1.264       .  A
C759        C939   1.473       .  S
C760        O765   1.269       .  A
C760        O763   1.265       .  A
C760        C959   1.466       .  S
Cd761       O768   2.474       .  S
Cd761       O767   2.468       .  S
Cd761       O766   2.495       .  S
Cd761       O762   2.472       .  S
Cd761       O765   2.467       .  S
Cd761       O763   2.420       .  S
C764        O768   1.263       .  A
C764        C934   1.473       .  S
O769        C772   1.267       .  A
O769       Cd774   2.495       .  S
C770        O779   1.262       .  A
C770        O775   1.267       .  A
C770       C1277   1.476       .  S
O771        C777   1.271       .  A
O771       Cd774   2.473       .  S
C772        O780   1.263       .  A
C772        C931   1.476       .  S
C773        O778   1.264       .  A
C773        O776   1.262       .  A
C773        C926   1.472       .  S
Cd774       O781   2.405       .  S
Cd774       O780   2.459       .  S
Cd774       O779   2.444       .  S
Cd774       O775   2.500       .  S
Cd774       O778   2.462       .  S
Cd774       O776   2.474       .  S
C777        O781   1.265       .  A
C777        C955   1.467       .  S
C782        C922   1.533       .  S
C782        C930   1.528       .  S
O783        C786   1.272       .  A
O783       Cd788   2.515       .  S
C784        O793   1.260       .  A
C784        O789   1.273       .  A
C784        C915   1.472       .  S
O785        C791   1.270       .  A
O785       Cd788   2.410       .  S
C786        O794   1.261       .  A
C786        C923   1.480       .  S
C787        O792   1.264       .  A
C787        O790   1.268       .  A
C787        C963   1.474   1_554  S
Cd788       O795   2.416       .  S
Cd788       O794   2.440       .  S
Cd788       O793   2.416       .  S
Cd788       O789   2.498       .  S
Cd788       O792   2.448       .  S
Cd788       O790   2.480       .  S
C791        O795   1.265       .  A
C791        C951   1.459       .  S
O796        C799   1.272       .  A
O796       Cd801   2.511       .  S
C797        O806   1.262       .  A
C797        O802   1.274       .  A
C797        C914   1.473       .  S
O798        C804   1.270       .  A
O798       Cd801   2.404       .  S
C799        O807   1.264       .  A
C799        C919   1.478       .  S
C800        O805   1.266       .  A
C800        O803   1.269       .  A
C800        C971   1.482       .  S
Cd801       O808   2.451       .  S
Cd801       O807   2.429       .  S
Cd801       O806   2.417       .  S
Cd801       O802   2.483       .  S
Cd801       O805   2.471       .  S
Cd801       O803   2.485       .  S
C804        O808   1.263       .  A
C804        C947   1.467       .  S
C809       C1154   1.524   1_545  S
C809       C1152   1.521   1_545  S
C809        C899   1.495       .  S
C810        H817   1.086       .  S
C810        C811   1.364       .  D
C811       C1151   1.543   1_545  S
C811        C910   1.476       .  S
C812       C1150   1.549       .  S
C812        C814   1.544       .  S
C812        H818   1.109       .  S
C813       C1148   1.525       .  S
C813        H819   1.083       .  S
C814        C903   1.479       .  S
C815       C1148   1.527       .  S
C815        H820   1.087       .  S
C815        C816   1.362       .  D
C816        C906   1.475       .  S
O821        C824   1.263       .  A
O821       Cd826   2.501       .  S
C822        O831   1.262       .  A
C822        O827   1.268       .  A
C822        C890   1.482       .  S
O823        C829   1.267       .  A
O823       Cd826   2.456       .  S
C824        O832   1.265       .  A
C824        C894   1.479       .  S
C825        O830   1.264       .  A
C825        O828   1.261       .  A
C825       C1002   1.470       .  S
Cd826       O833   2.425       .  S
Cd826       O832   2.492       .  S
Cd826       O831   2.472       .  S
Cd826       O827   2.510       .  S
Cd826       O830   2.471       .  S
Cd826       O828   2.460       .  S
C829        O833   1.269       .  A
C829        C911   1.470       .  S
O834        C837   1.268       .  A
O834       Cd839   2.528       .  S
C835        O844   1.262       .  A
C835        O840   1.269       .  A
C835        C891   1.482       .  S
O836        C842   1.269       .  A
O836       Cd839   2.461       .  S
C837        O845   1.262       .  A
C837        C887   1.491       .  S
C838        O843   1.263       .  A
C838        O841   1.265       .  A
C838        C991   1.478       .  S
Cd839       O846   2.420       .  S
Cd839       O845   2.502       .  S
Cd839       O844   2.465       .  S
Cd839       O840   2.525       .  S
Cd839       O843   2.484       .  S
Cd839       O841   2.471       .  S
C842        O846   1.266       .  A
C842        C907   1.466       .  S
C847        C878   1.543       .  S
C847       C1222   1.547       .  S
C847        C886   1.539       .  S
C847       C1234   1.533       .  S
O848        C851   1.272       .  A
O848       Cd853   2.515       .  S
C849        O858   1.262       .  A
C849        O854   1.277       .  A
C849        C874   1.483       .  S
O850        C856   1.271       .  A
O850       Cd853   2.408       .  S
C851        O859   1.262       .  A
C851        C882   1.487       .  S
C852        O857   1.268       .  A
C852        O855   1.270       .  A
C852        C927   1.471       .  S
Cd853       O860   2.408       .  S
Cd853       O859   2.467       .  S
Cd853       O858   2.426       .  S
Cd853       O854   2.523       .  S
Cd853       O857   2.436       .  S
Cd853       O855   2.444       .  S
C856        O860   1.264       .  A
C856        C898   1.458       .  S
O861        C864   1.262       .  A
O861       Cd866   2.458       .  S
C862        O871   1.262       .  A
C862        O867   1.269       .  A
C862        C879   1.481       .  S
O863        C869   1.262       .  A
O863       Cd866   2.441       .  S
C864        O872   1.268       .  A
C865        O870   1.265       .  A
C865        O868   1.268       .  A
C865        C902   1.463       .  S
Cd866       O873   2.495       .  S
Cd866       O872   2.502       .  S
Cd866       O871   2.454       .  S
Cd866       O867   2.526       .  S
Cd866       O870   2.422       .  S
Cd866       O868   2.438       .  S
C869        O873   1.266       .  A
C869        C935   1.475       .  S
C874        H876   1.087   1_655  S
C874        C875   1.339       .  D
C878        H880   1.087       .  S
C878        C879   1.347       .  D
C879        H881   1.087       .  S
C882        H884   1.083   1_545  S
C882        C883   1.350       .  D
C883       C1186   1.547   1_545  S
C883        H885   1.086       .  S
C886        H888   1.087       .  S
C886        C887   1.357       .  D
C887        H889   1.086       .  S
C890        H892   1.087       .  S
C890        C891   1.343       .  D
C891        H893   1.087       .  S
C894        H896   1.084       .  S
C894        C895   1.352   1_545  D
C895       C1186   1.535       .  S
C895        H897   1.088       .  S
C898        H900   1.087       .  S
C898        C899   1.334       .  D
C899        H901   1.087       .  S
C902        H904   1.083       .  S
C902        C903   1.342       .  D
C903        H905   1.086       .  S
C906        H908   1.086       .  S
C906        C907   1.342       .  D
C907        H909   1.088       .  S
C910        H912   1.087       .  S
C910        C911   1.340       .  D
C911        H913   1.084       .  S
C914        H916   1.087       .  S
C914        C915   1.335       .  D
C915        H917   1.087       .  S
C918        H920   1.087       .  S
C918        C919   1.347       .  D
C919        H921   1.087       .  S
C922        H924   1.088       .  S
C922        C923   1.344       .  D
C923        H925   1.087       .  S
C926        H928   1.087       .  S
C926        C927   1.342       .  D
C927        H929   1.087       .  S
C930        H932   1.088       .  S
C930        C931   1.351       .  D
C931        H933   1.086       .  S
C934        H936   1.087       .  S
C934        C935   1.346       .  D
C935        H937   1.086       .  S
C938       C1109   1.474       .  S
C938       H1279   1.087       .  S
C938        C939   1.344       .  D
C939        H941   1.087       .  S
H940       C1277   1.086       .  S
C942        H944   1.086       .  S
C942        C943   1.351       .  D
C943        H945   1.088       .  S
C946        H948   1.088       .  S
C946        C947   1.333       .  D
C947        H949   1.086       .  S
C950        H952   1.087       .  S
C950        C951   1.335       .  D
C951        H953   1.087       .  S
C954       H1295   1.086       .  S
C954        C955   1.341       .  D
C954       C1085   1.479       .  S
C955        H957   1.087       .  S
H956       C1293   1.086       .  S
C958        H960   1.086       .  S
C958        C959   1.340       .  D
C959        H961   1.088       .  S
C962        H964   1.086       .  S
C962        C963   1.343       .  D
C963        H965   1.087       .  S
C966        H968   1.086       .  S
C966        C967   1.343       .  D
C967        H969   1.087       .  S
C970        H972   1.087       .  S
C970        C971   1.346   1_556  D
C971        H973   1.087   1_554  S
C974        C975   1.348   1_455  D
C975        H977   1.087       .  S
C978        H980   1.087       .  S
C978        C979   1.346       .  D
C979        H981   1.087       .  S
C982        H984   1.087       .  S
C982        C983   1.335       .  D
C983        H985   1.088       .  S
C986        C987   1.338       .  D
C987        H989   1.084       .  S
C990        H992   1.087       .  S
C990        C991   1.343       .  D
C991        H993   1.086       .  S
C994        H996   1.088       .  S
C994        C995   1.338       .  D
C995        H997   1.086       .  S
C998       H1000   1.086       .  S
C998        C999   1.353       .  D
C999       H1001   1.088       .  S
C1002      H1004   1.087       .  S
C1002      C1003   1.342       .  D
C1003      H1005   1.087       .  S
C1006      H1008   1.085   1_545  S
C1006      C1007   1.345       .  D
C1007      H1009   1.086       .  S
C1007      C1046   1.482   1_545  S
C1010      C1021   1.482       .  S
C1010      H1351   1.086       .  S
C1010      C1011   1.350       .  D
C1011      H1013   1.086       .  S
H1012      C1349   1.086   1_545  S
C1014      H1016   1.086       .  S
C1014      C1015   1.351       .  D
C1015      H1017   1.087       .  S
O1018      C1021   1.270       .  A
O1018     Cd1023   2.519       .  S
C1019      O1028   1.262       .  A
C1019      O1024   1.265       .  A
C1019      C1353   1.483       .  S
O1020      C1026   1.267       .  A
O1020     Cd1023   2.465       .  S
C1021      O1029   1.262       .  A
C1022      O1027   1.268       .  A
C1022      O1025   1.262       .  A
C1022      C1345   1.465       .  S
Cd1023     O1030   2.457       .  S
Cd1023     O1029   2.442       .  S
Cd1023     O1028   2.499       .  S
Cd1023     O1024   2.492       .  S
Cd1023     O1027   2.471       .  S
Cd1023     O1025   2.421       .  S
C1026      O1030   1.268       .  A
C1026      C1342   1.476       .  S
O1031      C1034   1.269       .  A
O1031     Cd1036   2.498       .  S
C1032      O1041   1.267       .  A
C1032      O1037   1.264       .  A
C1032      C1350   1.479       .  S
O1033      C1039   1.265       .  A
O1033     Cd1036   2.446       .  S
C1034      O1042   1.262       .  A
C1034      C1337   1.480       .  S
C1035      O1040   1.264       .  A
C1035      O1038   1.263       .  A
C1035      C1329   1.471       .  S
Cd1036     O1043   2.446       .  S
Cd1036     O1042   2.469       .  S
Cd1036     O1041   2.483       .  S
Cd1036     O1037   2.477       .  S
Cd1036     O1040   2.455       .  S
Cd1036     O1038   2.465       .  S
C1039      O1043   1.268       .  A
C1039      C1333   1.468       .  S
C1044      C1050   1.529       .  S
C1044      C1048   1.535   1_655  S
C1044      C1321   1.506       .  S
C1045      H1052   1.085       .  S
C1045      C1046   1.371       .  D
C1047      C1049   1.544       .  S
C1048      H1054   1.086       .  S
C1050      H1055   1.087       .  S
C1050      C1051   1.358       .  D
C1051      C1334   1.466       .  S
O1056      C1059   1.266       .  A
O1056     Cd1061   2.478       .  S
C1057      O1066   1.262       .  A
C1057      O1062   1.265       .  A
C1057      C1318   1.475       .  S
O1058      C1064   1.266       .  A
O1058     Cd1061   2.459       .  S
C1059      O1067   1.265       .  A
C1060      O1065   1.264       .  A
C1060      O1063   1.266       .  A
C1060      C1326   1.469       .  S
Cd1061     O1068   2.463       .  S
Cd1061     O1067   2.457       .  S
Cd1061     O1066   2.470       .  S
Cd1061     O1062   2.473       .  S
Cd1061     O1065   2.446       .  S
Cd1061     O1063   2.463       .  S
C1064      O1068   1.264       .  A
C1064      C1309   1.473       .  S
O1069      C1072   1.262       .  A
O1069     Cd1074   2.475       .  S
C1070      O1079   1.265       .  A
C1070      O1075   1.266       .  A
C1070      C1314   1.474       .  S
O1071      C1077   1.264       .  A
O1071     Cd1074   2.435       .  S
C1072      O1080   1.264       .  A
C1072      C1305   1.473       .  S
C1073      O1078   1.263       .  A
C1073      O1076   1.264       .  A
C1073      C1301   1.475       .  S
Cd1074     O1081   2.463       .  S
Cd1074     O1080   2.476       .  S
Cd1074     O1079   2.463       .  S
Cd1074     O1075   2.468       .  S
Cd1074     O1078   2.425       .  S
Cd1074     O1076   2.500       .  S
C1077      O1081   1.268       .  A
C1077      C1322   1.467       .  S
C1082      C1306   1.539       .  S
C1082      C1317   1.528       .  S
C1082      C1338   1.529       .  S
C1082      C1354   1.535       .  S
C1083      C1084   1.531       .  S
C1083      C1089   1.525       .  S
C1083      C1087   1.528       .  S
C1083      C1289   1.503       .  S
C1084      H1091   1.086       .  S
C1084      C1085   1.373   1_565  D
C1086      C1088   1.545       .  S
C1086      H1092   1.108       .  S
C1087      H1093   1.087       .  S
C1088      C1285   1.470       .  S
C1089      H1094   1.087       .  S
C1090      C1297   1.476       .  S
O1095      C1098   1.266       .  A
O1095     Cd1100   2.493       .  S
C1096      O1105   1.263       .  A
C1096      O1101   1.266       .  A
C1096      C1281   1.485       .  S
O1097      C1103   1.263       .  A
O1097     Cd1100   2.471       .  S
C1098      O1106   1.262       .  A
C1098      C1278   1.475       .  S
C1099      O1104   1.267       .  A
C1099      O1102   1.266       .  A
C1099      C1298   1.466       .  S
Cd1100     O1107   2.474       .  S
Cd1100     O1106   2.460       .  S
Cd1100     O1105   2.491       .  S
Cd1100     O1101   2.510       .  S
Cd1100     O1104   2.459       .  S
Cd1100     O1102   2.431       .  S
C1103      O1107   1.264       .  A
C1103      C1273   1.473       .  S
O1108      C1111   1.264       .  A
O1108     Cd1113   2.505       .  S
C1109      O1118   1.264       .  A
C1109      O1114   1.266       .  A
O1110      C1116   1.268       .  A
O1110     Cd1113   2.472       .  S
C1111      O1119   1.263       .  A
C1111      C1270   1.482       .  S
C1112      O1117   1.263       .  A
C1112      O1115   1.263       .  A
C1112      C1265   1.473       .  S
Cd1113     O1120   2.449       .  S
Cd1113     O1119   2.477       .  S
Cd1113     O1118   2.459       .  S
Cd1113     O1114   2.479       .  S
Cd1113     O1117   2.473       .  S
Cd1113     O1115   2.473       .  S
C1116      O1120   1.266       .  A
C1116      C1294   1.472       .  S
C1121      C1261   1.538       .  S
C1121      C1269   1.531       .  S
O1122      C1125   1.271       .  A
O1122     Cd1127   2.544       .  S
C1123      O1132   1.261       .  A
C1123      O1128   1.272       .  A
C1123      C1254   1.478       .  S
O1124      C1130   1.264       .  A
O1124     Cd1127   2.414       .  S
C1125      O1133   1.260       .  A
C1125      C1262   1.483       .  S
C1126      O1131   1.260       .  A
C1126      O1129   1.269       .  A
C1126      C1302   1.467       .  S
Cd1127     O1134   2.444       .  S
Cd1127     O1133   2.443       .  S
Cd1127     O1132   2.439       .  S
Cd1127     O1128   2.506       .  S
Cd1127     O1131   2.410       .  S
Cd1127     O1129   2.507       .  S
C1130      O1134   1.267       .  A
C1130      C1290   1.456       .  S
O1135      C1138   1.271       .  A
O1135     Cd1140   2.516       .  S
C1136      O1145   1.260       .  A
C1136      O1141   1.272       .  A
C1136      C1253   1.477       .  S
O1137      C1143   1.269       .  A
O1137     Cd1140   2.404       .  S
C1138      O1146   1.262       .  A
C1138      C1258   1.480       .  S
C1139      O1144   1.263       .  A
C1139      O1142   1.268       .  A
C1139      C1310   1.472       .  S
Cd1140     O1147   2.429       .  S
Cd1140     O1146   2.445       .  S
Cd1140     O1145   2.437       .  S
Cd1140     O1141   2.505       .  S
Cd1140     O1144   2.450       .  S
Cd1140     O1142   2.474       .  S
C1143      O1147   1.265       .  A
C1143      C1286   1.462       .  S
C1148      C1238   1.497       .  S
C1149      H1156   1.087       .  S
C1149      C1150   1.362       .  D
C1150      C1249   1.484       .  S
C1151      C1153   1.537       .  S
C1151      H1157   1.109       .  S
C1152      H1158   1.083       .  S
C1153      C1242   1.476       .  S
C1154      H1159   1.087       .  S
C1154      C1155   1.363       .  D
C1155      C1245   1.479       .  S
O1160      C1163   1.262       .  A
O1160     Cd1165   2.495       .  S
C1161      O1170   1.266       .  A
C1161      O1166   1.264       .  A
C1161      C1229   1.486       .  S
O1162      C1168   1.266       .  A
O1162     Cd1165   2.466       .  S
C1163      O1171   1.264       .  A
C1163      C1233   1.482       .  S
C1164      O1169   1.264       .  A
C1164      O1167   1.262       .  A
C1164      C1341   1.475       .  S
Cd1165     O1172   2.457       .  S
Cd1165     O1171   2.505       .  S
Cd1165     O1170   2.511       .  S
Cd1165     O1166   2.496       .  S
Cd1165     O1169   2.488       .  S
Cd1165     O1167   2.470       .  S
C1168      O1172   1.270       .  A
C1168      C1250   1.477       .  S
O1173      C1176   1.266       .  A
O1173     Cd1178   2.528       .  S
C1174      O1183   1.266       .  A
C1174      O1179   1.266       .  A
C1174      C1230   1.485       .  S
O1175      C1181   1.269       .  A
O1175     Cd1178   2.489       .  S
C1176      O1184   1.260       .  A
C1176      C1226   1.487       .  S
C1177      O1182   1.262       .  A
C1177      O1180   1.262       .  A
C1177      C1330   1.473       .  S
Cd1178     O1185   2.419       .  S
Cd1178     O1184   2.491       .  S
Cd1178     O1183   2.489       .  S
Cd1178     O1179   2.500       .  S
Cd1178     O1182   2.487       .  S
Cd1178     O1180   2.475       .  S
C1181      O1185   1.265       .  A
C1181      C1246   1.470       .  S
C1186      C1217   1.543       .  S
C1186      C1225   1.535       .  S
O1187      C1190   1.272       .  A
O1187     Cd1192   2.517       .  S
C1188      O1197   1.261       .  A
C1188      O1193   1.276       .  A
C1188      C1213   1.478       .  S
O1189      C1195   1.271       .  A
O1189     Cd1192   2.431       .  S
C1190      O1198   1.263       .  A
C1190      C1221   1.485       .  S
C1191      O1196   1.269       .  A
C1191      O1194   1.269       .  A
C1191      C1266   1.474       .  S
Cd1192     O1199   2.385       .  S
Cd1192     O1198   2.453       .  S
Cd1192     O1197   2.415       .  S
Cd1192     O1193   2.514       .  S
Cd1192     O1196   2.436       .  S
Cd1192     O1194   2.459       .  S
C1195      O1199   1.263       .  A
C1195      C1237   1.455       .  S
O1200      C1203   1.269       .  A
O1200     Cd1205   2.516       .  S
C1201      O1210   1.260       .  A
C1201      O1206   1.270       .  A
C1201      C1218   1.484       .  S
O1202      C1208   1.264       .  A
O1202     Cd1205   2.452       .  S
C1203      O1211   1.260       .  A
C1204      O1209   1.266       .  A
C1204      O1207   1.268       .  A
C1204      C1241   1.463       .  S
Cd1205     O1212   2.476       .  S
Cd1205     O1211   2.472       .  S
Cd1205     O1210   2.457       .  S
Cd1205     O1206   2.547       .  S
Cd1205     O1209   2.428       .  S
Cd1205     O1207   2.421       .  S
C1208      O1212   1.266       .  A
C1208      C1274   1.474       .  S
C1213      H1215   1.087   1_655  S
C1213      C1214   1.337       .  D
C1217      H1219   1.087       .  S
C1217      C1218   1.346       .  D
C1218      H1220   1.087       .  S
C1221      H1223   1.083       .  S
C1221      C1222   1.351       .  D
C1222      H1224   1.087       .  S
C1225      H1227   1.088       .  S
C1225      C1226   1.355       .  D
C1226      H1228   1.086       .  S
C1229      H1231   1.086       .  S
C1229      C1230   1.349       .  D
C1230      H1232   1.086       .  S
C1233      H1235   1.085       .  S
C1233      C1234   1.352       .  D
C1234      H1236   1.087       .  S
C1237      H1239   1.087       .  S
C1237      C1238   1.336       .  D
C1238      H1240   1.087       .  S
C1241      H1243   1.083       .  S
C1241      C1242   1.341       .  D
C1242      H1244   1.087       .  S
C1245      H1247   1.086       .  S
C1245      C1246   1.344       .  D
C1246      H1248   1.088       .  S
C1249      H1251   1.088       .  S
C1249      C1250   1.340       .  D
C1250      H1252   1.084       .  S
C1253      H1255   1.087       .  S
C1253      C1254   1.338       .  D
C1254      H1256   1.087       .  S
C1257      H1259   1.087       .  S
C1257      C1258   1.346       .  D
C1258      H1260   1.087       .  S
C1261      H1263   1.087       .  S
C1261      C1262   1.345       .  D
C1262      H1264   1.087       .  S
C1265      H1267   1.087       .  S
C1265      C1266   1.344       .  D
C1266      H1268   1.087       .  S
C1269      H1271   1.088       .  S
C1269      C1270   1.349       .  D
C1270      H1272   1.086       .  S
C1273      H1275   1.087       .  S
C1273      C1274   1.344       .  D
C1274      H1276   1.086       .  S
C1277      C1278   1.348   1_545  D
C1278      H1280   1.087       .  S
C1281      H1283   1.086       .  S
C1281      C1282   1.352       .  D
C1282      H1284   1.087       .  S
C1285      H1287   1.088       .  S
C1285      C1286   1.335       .  D
C1286      H1288   1.083       .  S
C1289      H1291   1.087       .  S
C1289      C1290   1.342       .  D
C1290      H1292   1.087       .  S
C1293      C1294   1.345       .  D
C1294      H1296   1.085       .  S
C1297      H1299   1.086       .  S
C1297      C1298   1.344       .  D
C1298      H1300   1.088       .  S
C1301      H1303   1.087       .  S
C1301      C1302   1.341   1_556  D
C1302      H1304   1.087   1_554  S
C1305      H1307   1.084       .  S
C1305      C1306   1.353       .  D
C1306      H1308   1.087       .  S
C1309      H1311   1.087       .  S
C1309      C1310   1.341   1_556  D
C1310      H1312   1.087   1_554  S
C1313      C1314   1.346   1_455  D
C1314      H1316   1.087       .  S
C1317      H1319   1.088       .  S
C1317      C1318   1.349       .  D
C1318      H1320   1.084       .  S
C1321      H1323   1.087       .  S
C1321      C1322   1.341       .  D
C1322      H1324   1.087       .  S
C1325      C1326   1.344       .  D
C1326      H1328   1.085       .  S
C1329      H1331   1.087       .  S
C1329      C1330   1.343       .  D
C1330      H1332   1.087       .  S
C1333      H1335   1.087       .  S
C1333      C1334   1.338       .  D
C1334      H1336   1.086       .  S
C1337      H1339   1.086       .  S
C1337      C1338   1.343       .  D
C1338      H1340   1.089       .  S
C1341      H1343   1.087       .  S
C1341      C1342   1.344       .  D
C1342      H1344   1.086       .  S
C1345      H1347   1.086       .  S
C1345      C1346   1.340       .  D
C1346      H1348   1.086       .  S
C1349      C1350   1.347       .  D
C1350      H1352   1.086       .  S
C1353      H1355   1.084       .  S
C1353      C1354   1.348       .  D
C1354      H1356   1.089       .  S
