geometry optimzed in LAMMPS
_audit_creation_date              2020-11-30 
_audit_creation_method            'lammps2cif' 
_symmetry_space_group_name_H-M    'P1' 
_symmetry_Int_Tables_number       1 
_symmetry_cell_setting            triclinic 
loop_ 
_symmetry_equiv_pos_as_xyz 
  x,y,z 
_cell_length_a                    78.82988877 
_cell_length_b                    41.69184667181522 
_cell_length_c                    42.35761113728275 
_cell_angle_alpha                 89.9756462657658 
_cell_angle_beta                  90.00727445843538 
_cell_angle_gamma                 90.01217853134649 
loop_ 
_atom_site_label 
_atom_site_type_symbol 
_atom_site_fract_x 
_atom_site_fract_y 
_atom_site_fract_z 
_atom_site_charge 
In1        In  0.31941231  0.15588584  0.67576757     1.36900
C2          C  0.30903047  0.16003120  0.73527483     0.80700
O3          O  0.34622120  0.15235379  0.69359362    -0.57800
O4          O  0.34119886  0.18353963  0.65503740    -0.48700
C5          C  0.31973923  0.10186701  0.64218622     0.73300
O6          O  0.32124400  0.10207258  0.67177468    -0.43500
C7          C  0.29529293  0.19365029  0.65297724     0.78100
O8          O  0.30667722  0.13528178  0.71879191    -0.55400
O9          O  0.31056220  0.20231692  0.65483727    -0.45500
O10         O  0.31716217  0.18213825  0.72185821    -0.51800
C11         C  0.35195998  0.17228151  0.67397531     0.88200
O12         O  0.31813621  0.12908085  0.62970265    -0.53700
O13         O  0.29233869  0.16536429  0.66186262    -0.57000
In14       In  0.31828673  0.21679195  0.05745788     1.36900
C15         C  0.30788224  0.21312825  0.99786342     0.80700
O16         O  0.34522854  0.22128793  0.04054874    -0.57800
O17         O  0.33997432  0.18857271  0.07777225    -0.48700
C18         C  0.31889215  0.27065734  0.09117220     0.73300
O19         O  0.31980512  0.27059200  0.06148795    -0.43500
C20         C  0.29429213  0.17872289  0.08034369     0.78100
O21         O  0.30481472  0.23711824  0.01499707    -0.55400
O22         O  0.30933397  0.16951356  0.07625390    -0.45500
O23         O  0.31671666  0.19164883  0.01066766    -0.51800
C24         C  0.35085586  0.20061602  0.05953918     0.88200
O25         O  0.31773495  0.24335760  0.10368653    -0.53700
O26         O  0.29150554  0.20767476  0.07364061    -0.57000
In27       In  0.26356066  0.18572431  0.86602432     1.36900
C28         C  0.24150015  0.23218486  0.85373118     0.80700
O29         O  0.27586306  0.19984003  0.82035534    -0.57800
O30         O  0.28305195  0.15543339  0.84092763    -0.48700
C31         C  0.28404266  0.19768824  0.91438785     0.73300
O32         O  0.28187883  0.21745811  0.89227778    -0.43500
C33         C  0.24161823  0.13904147  0.87804699     0.78100
O34         O  0.25097732  0.23269700  0.87763676    -0.55400
O35         O  0.25088470  0.13897696  0.85386089    -0.45500
O36         O  0.24333049  0.20820587  0.83602492    -0.51800
C37         C  0.28459179  0.17468998  0.81821352     0.88200
O38         O  0.27624842  0.17152804  0.91133027    -0.53700
O39         O  0.24367658  0.16256282  0.89624341    -0.57000
In40       In  0.18365774  0.34023287  0.80736286     1.36900
C41         C  0.20648947  0.29959111  0.82997262     0.80700
O42         O  0.16154724  0.31519244  0.82986734    -0.57800
O43         O  0.15732510  0.34075074  0.78712750    -0.48700
C44         C  0.18242120  0.39443377  0.84053478     0.73300
O45         O  0.18526748  0.36758818  0.85303951    -0.43500
C46         C  0.19583208  0.33891393  0.74889786     0.78100
O47         O  0.20980669  0.32875146  0.82527822    -0.55400
O48         O  0.18614437  0.31753981  0.75959475    -0.45500
O49         O  0.19144706  0.29140059  0.82411850    -0.51800
C50         C  0.15120544  0.32359521  0.80879110     0.88200
O51         O  0.18014866  0.39376637  0.81110907    -0.53700
O52         O  0.19881744  0.36179323  0.76752072    -0.57000
In53       In  0.18347702  0.28157412  0.42506592     1.36900
C54         C  0.20616795  0.32198897  0.40170067     0.80700
O55         O  0.16129092  0.30770121  0.40382785    -0.57800
O56         O  0.15712342  0.28001538  0.44526411    -0.48700
C57         C  0.18231876  0.22703333  0.39229095     0.73300
O58         O  0.18452857  0.25392156  0.37941829    -0.43500
C59         C  0.19588640  0.28316647  0.48343352     0.78100
O60         O  0.20950806  0.29291012  0.40666274    -0.55400
O61         O  0.18565828  0.30385280  0.47319258    -0.45500
O62         O  0.19115812  0.33025936  0.40767569    -0.51800
C63         C  0.15097255  0.29834123  0.42456875     0.88200
O64         O  0.18052635  0.22787529  0.42181751    -0.53700
O65         O  0.19937461  0.26096797  0.46436034    -0.57000
In66       In  0.23995439  0.30994584  0.61653273     1.36900
C67         C  0.26034130  0.35925307  0.60491904     0.80700
O68         O  0.25723086  0.28238708  0.64870197    -0.57800
O69         O  0.25237051  0.26313006  0.60318158    -0.48700
C70         C  0.22062569  0.32422854  0.66606281     0.73300
O71         O  0.22753757  0.34544392  0.64929790    -0.43500
C72         C  0.22104343  0.29656855  0.56613189     0.78100
O73         O  0.24480003  0.35978639  0.59802815    -0.55400
O74         O  0.23618877  0.30583357  0.56418353    -0.45500
O75         O  0.26540572  0.33390027  0.61793967    -0.51800
C76         C  0.26006739  0.26038800  0.62907930     0.88200
O77         O  0.22323216  0.29582378  0.65723654    -0.53700
O78         O  0.21541191  0.29398761  0.59383469    -0.57000
In79       In  0.31920780  0.40727919  0.17639171     1.36900
C80         C  0.30866934  0.41120175  0.23573828     0.80700
O81         O  0.34602314  0.40217348  0.19379319    -0.57800
O82         O  0.34118835  0.43461295  0.15612784    -0.48700
C83         C  0.31924888  0.35323354  0.14293408     0.73300
O84         O  0.32042553  0.35343945  0.17257424    -0.43500
C85         C  0.29553420  0.44586084  0.15333555     0.78100
O86         O  0.30559242  0.38724689  0.21858409    -0.55400
O87         O  0.31078809  0.45435057  0.15614297    -0.45500
O88         O  0.31761566  0.43264340  0.22309254    -0.51800
C89         C  0.35189574  0.42239906  0.17459741     0.88200
O90         O  0.31810853  0.38048371  0.13032812    -0.53700
O91         O  0.29238877  0.41743633  0.16148116    -0.57000
In92       In  0.31872406  0.46512509  0.55722507     1.36900
C93         C  0.30780667  0.46141680  0.49808999     0.80700
O94         O  0.34546850  0.46848138  0.53904930    -0.57800
O95         O  0.34059718  0.43785336  0.57811392    -0.48700
C96         C  0.31932880  0.01923878  0.59054076     0.73300
O97         O  0.32118108  0.01882123  0.56102047    -0.43500
C98         C  0.29493126  0.42681850  0.58021132     0.78100
O99         O  0.30524365  0.48573903  0.51505513    -0.55400
O100        O  0.31014799  0.41814632  0.57725716    -0.45500
O101        O  0.31642156  0.43955570  0.51081310    -0.51800
C102        C  0.35129136  0.44888432  0.55890628     0.88200
O103        O  0.31717893  0.49218402  0.60307528    -0.53700
O104        O  0.29187922  0.45538527  0.57237901    -0.57000
In105      In  0.26305038  0.43582019  0.36634035     1.36900
C106        C  0.24125312  0.38902392  0.37808387     0.80700
O107        O  0.27430806  0.42218151  0.41304404    -0.57800
O108        O  0.28223807  0.46602123  0.39215756    -0.48700
C109        C  0.28387745  0.42506522  0.31829938     0.73300
O110        O  0.28289455  0.40626042  0.34147955    -0.43500
C111        C  0.24117760  0.48232698  0.35382331     0.78100
O112        O  0.25155551  0.38776507  0.35540263    -0.55400
O113        O  0.25162195  0.48417239  0.37623981    -0.45500
O114        O  0.24223019  0.41379637  0.39495443    -0.51800
C115        C  0.28325851  0.44706179  0.41520857     0.88200
O116        O  0.27457232  0.44949411  0.31993829    -0.53700
O117        O  0.24201408  0.45707185  0.33765017    -0.57000
In118      In  0.18358163  0.03176129  0.92459832     1.36900
C119        C  0.20637813  0.07209995  0.90150629     0.80700
O120        O  0.16124494  0.05657404  0.90256784    -0.57800
O121        O  0.15735146  0.03078849  0.94527400    -0.48700
C122        C  0.18244085  0.47741809  0.89164075     0.73300
O123        O  0.18503271  0.50427518  0.87896945    -0.43500
C124        C  0.19580951  0.03361294  0.98302732     0.78100
O125        O  0.20974690  0.04310103  0.90691087    -0.55400
O126        O  0.18619299  0.05501457  0.97214553    -0.45500
O127        O  0.19127994  0.08029048  0.90684561    -0.51800
C128        C  0.15104777  0.04795871  0.92380821     0.88200
O129        O  0.18038989  0.47815021  0.92111652    -0.53700
O130        O  0.19875912  0.01059958  0.96455746    -0.57000
In131      In  0.18341943  0.09011423  0.30735863     1.36900
C132        C  0.20613262  0.04939344  0.32985736     0.80700
O133        O  0.16150126  0.06367198  0.32870823    -0.57800
O134        O  0.15694062  0.09261549  0.28817417    -0.48700
C135        C  0.18243371  0.14396000  0.34118575     0.73300
O136        O  0.18548955  0.11701307  0.35331218    -0.43500
C137        C  0.19548609  0.08836990  0.24884413     0.78100
O138        O  0.20957517  0.07840599  0.32464751    -0.55400
O139        O  0.18531585  0.06770496  0.25931494    -0.45500
O140        O  0.19100834  0.04133805  0.32451529    -0.51800
C141        C  0.15099886  0.07383039  0.30867523     0.88200
O142        O  0.17982529  0.14353739  0.31185710    -0.53700
O143        O  0.19895412  0.11081977  0.26766189    -0.57000
In144      In  0.23972699  0.06104744  0.11608708     1.36900
C145        C  0.26058090  0.01251620  0.12780649     0.80700
O146        O  0.25748239  0.08846491  0.08478203    -0.57800
O147        O  0.25127984  0.10865584  0.12935034    -0.48700
C148        C  0.22044179  0.04730017  0.06625388     0.73300
O149        O  0.22752985  0.02588881  0.08251298    -0.43500
C150        C  0.22077980  0.07376082  0.16655812     0.78100
O151        O  0.24492320  0.01097014  0.13364323    -0.55400
O152        O  0.23566536  0.06309591  0.16852965    -0.45500
O153        O  0.26550433  0.03842813  0.11567712    -0.51800
C154        C  0.25953691  0.11111696  0.10402970     0.88200
O155        O  0.22287489  0.07551974  0.07571201    -0.53700
O156        O  0.21540886  0.07776298  0.13885741    -0.57000
In157      In  0.56826097  0.34051817  0.92655769     1.36900
C158        C  0.54559639  0.29953849  0.90397523     0.80700
O159        O  0.59040925  0.31476939  0.90500724    -0.57800
O160        O  0.59481132  0.34322099  0.94582467    -0.48700
C161        C  0.56906786  0.39435875  0.89283084     0.73300
O162        O  0.56633134  0.36735590  0.88061388    -0.43500
C163        C  0.55663358  0.33878981  0.98538089     0.78100
O164        O  0.54191835  0.32825470  0.91014384    -0.55400
O165        O  0.56645301  0.31777014  0.97444478    -0.45500
O166        O  0.56086379  0.29198196  0.90848561    -0.51800
C167        C  0.60088693  0.32485594  0.92510848     0.88200
O168        O  0.57132326  0.39405214  0.92224919    -0.53700
O169        O  0.55315502  0.36140407  0.96673850    -0.57000
In170      In  0.56943901  0.28189265  0.30847105     1.36900
C171        C  0.54640851  0.32178770  0.33147163     0.80700
O172        O  0.59166746  0.30785893  0.32948624    -0.57800
O173        O  0.59582142  0.27924230  0.28867791    -0.48700
C174        C  0.57035084  0.22819497  0.34218651     0.73300
O175        O  0.56820014  0.25531581  0.35457081    -0.43500
C176        C  0.55750837  0.28316152  0.24994557     0.78100
O177        O  0.54321603  0.29268333  0.32623709    -0.55400
O178        O  0.56688332  0.30492391  0.26084970    -0.45500
O179        O  0.56141686  0.33035410  0.32578781    -0.51800
C180        C  0.60200396  0.29772157  0.30916900     0.88200
O181        O  0.57213959  0.22837321  0.31265329    -0.53700
O182        O  0.55465712  0.26013370  0.26845007    -0.57000
In183      In  0.51290711  0.30937606  0.11781579     1.36900
C184        C  0.49231502  0.35868779  0.12807075     0.80700
O185        O  0.49660982  0.27988609  0.08562656    -0.57800
O186        O  0.49912174  0.26451699  0.13319922    -0.48700
C187        C  0.53244816  0.32400282  0.06870521     0.73300
O188        O  0.52546748  0.34512602  0.08546103    -0.43500
C189        C  0.53218361  0.29604278  0.16762236     0.78100
O190        O  0.50767195  0.35903292  0.13630207    -0.55400
O191        O  0.51757753  0.30790235  0.16998050    -0.45500
O192        O  0.48754910  0.33354530  0.11426897    -0.51800
C193        C  0.49254511  0.25984644  0.10650614     0.88200
O194        O  0.52983459  0.29555591  0.07738671    -0.53700
O195        O  0.53707749  0.29079110  0.13982121    -0.57000
In196      In  0.43417703  0.21536747  0.67603336     1.36900
C197        C  0.44473896  0.21017035  0.73543362     0.80700
O198        O  0.40721404  0.22048256  0.69249350    -0.57800
O199        O  0.41259143  0.18636564  0.65656029    -0.48700
C200        C  0.43319431  0.26968005  0.64302369     0.73300
O201        O  0.43226317  0.26919846  0.67270349    -0.43500
C202        C  0.45816262  0.17836723  0.65170353     0.78100
O203        O  0.44814822  0.23417648  0.71853473    -0.55400
O204        O  0.44302883  0.16918778  0.65465013    -0.45500
O205        O  0.43547706  0.18941295  0.72251597    -0.51800
C206        C  0.40164546  0.19917999  0.67413112     0.88200
O207        O  0.43460747  0.24259820  0.63019611    -0.53700
O208        O  0.46103750  0.20674014  0.66035603    -0.57000
In209      In  0.43303055  0.15664665  0.05765351     1.36900
C210        C  0.44354643  0.16061594  0.99815381     0.80700
O211        O  0.40620843  0.15333281  0.03965779    -0.57800
O212        O  0.41124440  0.18423145  0.07839066    -0.48700
C213        C  0.43238626  0.10225002  0.09068728     0.73300
O214        O  0.43221277  0.10268012  0.06096760    -0.43500
C215        C  0.45714553  0.19387560  0.08164026     0.78100
O216        O  0.44577848  0.13589355  0.01472766    -0.55400
O217        O  0.44210876  0.20327118  0.07794833    -0.45500
O218        O  0.43548615  0.18285977  0.01147623    -0.51800
C219        C  0.40047828  0.17316088  0.05937508     0.88200
O220        O  0.43275394  0.12943336  0.10355926    -0.53700
O221        O  0.45988857  0.16522850  0.07377257    -0.57000
In222      In  0.48934507  0.18451533  0.86743894     1.36900
C223        C  0.51157389  0.13836892  0.85590589     0.80700
O224        O  0.47626583  0.16866820  0.82300944    -0.57800
O225        O  0.47130098  0.21566883  0.83995655    -0.48700
C226        C  0.46822903  0.17417362  0.91525528     0.73300
O227        O  0.47036403  0.15397247  0.89354466    -0.43500
C228        C  0.51114246  0.23133365  0.87971665     0.78100
O229        O  0.50215576  0.13801938  0.87988312    -0.55400
O230        O  0.50226994  0.23090696  0.85500729    -0.45500
O231        O  0.50962478  0.16202435  0.83783638    -0.51800
C232        C  0.46876700  0.19496928  0.81885629     0.88200
O233        O  0.47644013  0.19984735  0.91212768    -0.53700
O234        O  0.50887358  0.20805252  0.89817404    -0.57000
In235      In  0.43414579  0.46520105  0.17556453     1.36900
C236        C  0.44495909  0.46136010  0.23497650     0.80700
O237        O  0.40736817  0.46916936  0.19328625    -0.57800
O238        O  0.41241872  0.43690566  0.15559125    -0.48700
C239        C  0.43311803  0.01934213  0.14205661     0.73300
O240        O  0.43180458  0.01897890  0.17167209    -0.43500
C241        C  0.45775740  0.42658328  0.15225397     0.78100
O242        O  0.44821181  0.48506248  0.21754577    -0.55400
O243        O  0.44245605  0.41834865  0.15480323    -0.45500
O244        O  0.43571724  0.44023214  0.22257408    -0.51800
C245        C  0.40165244  0.44868489  0.17420549     0.88200
O246        O  0.43499843  0.49223802  0.12950283    -0.53700
O247        O  0.46100315  0.45490837  0.16064044    -0.57000
In248      In  0.43372585  0.40692288  0.55875798     1.36900
C249        C  0.44511227  0.41062397  0.49984737     0.80700
O250        O  0.40717844  0.40327610  0.53956160    -0.57800
O251        O  0.41149429  0.43329402  0.57929613    -0.48700
C252        C  0.43289288  0.35261549  0.59179638     0.73300
O253        O  0.43249098  0.35300620  0.56207213    -0.43500
C254        C  0.45708459  0.44585841  0.58266279     0.78100
O255        O  0.44800901  0.38673087  0.51724209    -0.55400
O256        O  0.44210012  0.45473998  0.57732762    -0.45500
O257        O  0.43596577  0.43200829  0.51203383    -0.51800
C258        C  0.40105601  0.42241978  0.55953011     0.88200
O259        O  0.43364291  0.37978572  0.60465052    -0.53700
O260        O  0.46009709  0.41681407  0.57677435    -0.57000
In261      In  0.48969379  0.43598488  0.36740842     1.36900
C262        C  0.51133656  0.38878249  0.35548976     0.80700
O263        O  0.47879441  0.42262334  0.32017848    -0.57800
O264        O  0.47004639  0.46549821  0.34165276    -0.48700
C265        C  0.46966073  0.42505969  0.41680689     0.73300
O266        O  0.46945446  0.40753510  0.39263623    -0.43500
C267        C  0.51114138  0.48355517  0.37938213     0.78100
O268        O  0.50021896  0.38665900  0.37672851    -0.55400
O269        O  0.50007258  0.48541793  0.35801000    -0.45500
O270        O  0.51128820  0.41465544  0.34018144    -0.51800
C271        C  0.46942043  0.44694975  0.31823733     0.88200
O272        O  0.47971273  0.44842681  0.41550115    -0.53700
O273        O  0.51120776  0.45766342  0.39467245    -0.57000
In274      In  0.56874194  0.03075476  0.80758968     1.36900
C275        C  0.54629177  0.07129798  0.83107109     0.80700
O276        O  0.59085554  0.05673945  0.82873886    -0.57800
O277        O  0.59513407  0.02788737  0.78808268    -0.48700
C278        C  0.56956868  0.47676966  0.84097956     0.73300
O279        O  0.56746881  0.50383382  0.85350027    -0.43500
C280        C  0.55681460  0.03281730  0.74904568     0.78100
O281        O  0.54277023  0.04231747  0.82590868    -0.55400
O282        O  0.56680700  0.05363679  0.75979954    -0.45500
O283        O  0.56131108  0.07942048  0.82496350    -0.51800
C284        C  0.60122801  0.04656128  0.80850878     0.88200
O285        O  0.57136589  0.47712421  0.81144279    -0.53700
O286        O  0.55327128  0.01030188  0.76774701    -0.57000
In287      In  0.56921346  0.09099785  0.42600034     1.36900
C288        C  0.54595720  0.05121270  0.40333573     0.80700
O289        O  0.59116076  0.06525715  0.40369798    -0.57800
O290        O  0.59577932  0.09266755  0.44512669    -0.48700
C291        C  0.57016745  0.14539645  0.39332649     0.73300
O292        O  0.56783521  0.11855048  0.38047536    -0.43500
C293        C  0.55782265  0.08894355  0.48486825     0.78100
O294        O  0.54283219  0.08034329  0.40859847    -0.55400
O295        O  0.56722353  0.06749909  0.47347309    -0.45500
O296        O  0.56098899  0.04264829  0.40872872    -0.51800
C297        C  0.60170475  0.07459081  0.42403317     0.88200
O298        O  0.57206313  0.14462040  0.42282970    -0.53700
O299        O  0.55466133  0.11207635  0.46666421    -0.57000
In300      In  0.51318580  0.06193987  0.61643376     1.36900
C301        C  0.49310294  0.11209693  0.62587035     0.80700
O302        O  0.49687302  0.03200114  0.58455389    -0.57800
O303        O  0.49841631  0.01865131  0.63282935    -0.48700
C304        C  0.53332711  0.07518695  0.56791918     0.73300
O305        O  0.52717395  0.09679313  0.58521744    -0.43500
C306        C  0.53210971  0.04742768  0.66634844     0.78100
O307        O  0.50800934  0.11096708  0.63651169    -0.55400
O308        O  0.51760769  0.05975387  0.66859472    -0.45500
O309        O  0.48864826  0.08824666  0.60970820    -0.51800
C310        C  0.49220731  0.01309187  0.60601146     0.88200
O311        O  0.52960422  0.04695015  0.57581174    -0.53700
O312        O  0.53710306  0.04233991  0.63856722    -0.57000
In313      In  0.06884058  0.09083007  0.92633360     1.36900
C314        C  0.04560076  0.05101946  0.90362569     0.80700
O315        O  0.09072709  0.06418673  0.90489159    -0.57800
O316        O  0.09551205  0.09376177  0.94479167    -0.48700
C317        C  0.06971489  0.14490648  0.89311118     0.73300
O318        O  0.06747922  0.11791153  0.88051274    -0.43500
C319        C  0.05760541  0.08885310  0.98533612     0.78100
O320        O  0.04239646  0.08002023  0.90939109    -0.55400
O321        O  0.06723664  0.06770599  0.97407097    -0.45500
O322        O  0.06069166  0.04257118  0.90863161    -0.51800
C323        C  0.10136866  0.07470355  0.92447949     0.88200
O324        O  0.07155667  0.14443860  0.92262795    -0.53700
O325        O  0.05412656  0.11164706  0.96692976    -0.57000
In326      In  0.06894544  0.03132955  0.30829021     1.36900
C327        C  0.04659008  0.07223830  0.33158851     0.80700
O328        O  0.09109458  0.05714100  0.32946628    -0.57800
O329        O  0.09531490  0.02838678  0.28871069    -0.48700
C330        C  0.06984693  0.47734221  0.34164366     0.73300
O331        O  0.06791209  0.50442562  0.35422938    -0.43500
C332        C  0.05688971  0.03298647  0.24982988     0.78100
O333        O  0.04314576  0.04306663  0.32738296    -0.55400
O334        O  0.06710758  0.05360731  0.26021246    -0.45500
O335        O  0.06150446  0.08038070  0.32467588    -0.51800
C336        C  0.10143984  0.04697626  0.30918004     0.88200
O337        O  0.07144183  0.47768877  0.31206486    -0.53700
O338        O  0.05319264  0.01084342  0.26885467    -0.57000
In339      In  0.01321517  0.06132830  0.11705938     1.36900
C340        C  0.99295130  0.11118440  0.12659641     0.80700
O341        O  0.99701369  0.03143368  0.08495176    -0.57800
O342        O  0.99874558  0.01755646  0.13307673    -0.48700
C343        C  0.03327194  0.07491616  0.06850105     0.73300
O344        O  0.02691910  0.09642475  0.08565766    -0.43500
C345        C  0.03209561  0.04716616  0.16713727     0.78100
O346        O  0.00804547  0.11067033  0.13632848    -0.55400
O347        O  0.01760304  0.05955023  0.16926637    -0.45500
O348        O  0.98836193  0.08681051  0.11134004    -0.51800
C349        C  0.99252083  0.01216243  0.10623336     0.88200
O350        O  0.02977938  0.04662029  0.07653897    -0.53700
O351        O  0.03709750  0.04186176  0.13940566    -0.57000
In352      In  0.93390694  0.40632833  0.05887002     1.36900
C353        C  0.94493654  0.41034916  0.99972659     0.80700
O354        O  0.90734107  0.40175709  0.04003601    -0.57800
O355        O  0.91166197  0.43324026  0.07866552    -0.48700
C356        C  0.93306380  0.35223016  0.09222659     0.73300
O357        O  0.93311819  0.35243523  0.06249530    -0.43500
C358        C  0.95747572  0.44486051  0.08271416     0.78100
O359        O  0.94784867  0.38627590  0.01687507    -0.55400
O360        O  0.94244412  0.45381056  0.07798786    -0.45500
O361        O  0.93596526  0.43177087  0.01229719    -0.51800
C362        C  0.90120841  0.42152206  0.05939554     0.88200
O363        O  0.93338343  0.37949503  0.10495427    -0.53700
O364        O  0.96043801  0.41591716  0.07627773    -0.57000
In365      In  0.93409189  0.46539000  0.67495321     1.36900
C366        C  0.94464584  0.46145772  0.73450733     0.80700
O367        O  0.90729574  0.46967112  0.69244768    -0.57800
O368        O  0.91237315  0.43700761  0.65509844    -0.48700
C369        C  0.93307635  0.01946478  0.64139601     0.73300
O370        O  0.93211516  0.01918784  0.67105647    -0.43500
C371        C  0.95784840  0.42707722  0.65170761     0.78100
O372        O  0.94778208  0.48537471  0.71728780    -0.55400
O373        O  0.94256554  0.41869763  0.65413751    -0.45500
O374        O  0.93566909  0.44010874  0.72179584    -0.51800
C375        C  0.90159118  0.44903147  0.67352362     0.88200
O376        O  0.93463267  0.49229142  0.62881000    -0.53700
O377        O  0.96101100  0.45540748  0.66018863    -0.57000
In378      In  0.98921591  0.43619759  0.86703779     1.36900
C379        C  0.01073688  0.48359146  0.87921952     0.80700
O380        O  0.97885646  0.44899481  0.91478550    -0.57800
O381        O  0.96919520  0.40730509  0.89243127    -0.48700
C382        C  0.96884009  0.44715139  0.81801760     0.73300
O383        O  0.96976162  0.46605510  0.84112561    -0.43500
C384        C  0.01106892  0.38930926  0.85494003     0.78100
O385        O  0.00006916  0.48516975  0.85712694    -0.55400
O386        O  0.00011459  0.38715992  0.87646492    -0.45500
O387        O  0.01035303  0.45809144  0.89512125    -0.51800
C388        C  0.96910741  0.42518625  0.91635342     0.88200
O389        O  0.97793281  0.42247322  0.82024438    -0.53700
O390        O  0.01075723  0.41505136  0.83943709    -0.57000
In391      In  0.06892907  0.28147895  0.80829634     1.36900
C392        C  0.04610252  0.32206824  0.83099269     0.80700
O393        O  0.09115924  0.30706444  0.82973777    -0.57800
O394        O  0.09533955  0.27882492  0.78866877    -0.48700
C395        C  0.06977057  0.22757344  0.84174354     0.73300
O396        O  0.06739559  0.25459350  0.85419165    -0.43500
C397        C  0.05717584  0.28275003  0.74966726     0.78100
O398        O  0.04271903  0.29304849  0.82572375    -0.55400
O399        O  0.06703743  0.30387756  0.76028765    -0.45500
O400        O  0.06119829  0.33020797  0.82550603    -0.51800
C401        C  0.10151547  0.29706879  0.80937558     0.88200
O402        O  0.07177771  0.22793711  0.81226312    -0.53700
O403        O  0.05371774  0.26033036  0.76853359    -0.57000
In404      In  0.06856673  0.34073522  0.42667463     1.36900
C405        C  0.04589202  0.29974120  0.40403944     0.80700
O406        O  0.09082588  0.31522461  0.40516175    -0.57800
O407        O  0.09505753  0.34330310  0.44628722    -0.48700
C408        C  0.06940871  0.39473933  0.39320565     0.73300
O409        O  0.06669490  0.36779287  0.38084474    -0.43500
C410        C  0.05674205  0.33896393  0.48533179     0.78100
O411        O  0.04224144  0.32846904  0.41018075    -0.55400
O412        O  0.06672270  0.31810847  0.47459501    -0.45500
O413        O  0.06116091  0.29216565  0.40853678    -0.51800
C414        C  0.10123030  0.32516421  0.42547537     0.88200
O415        O  0.07164222  0.39428474  0.42262730    -0.53700
O416        O  0.05322614  0.36147847  0.46659842    -0.57000
In417      In  0.01279475  0.30956854  0.61754426     1.36900
C418        C  0.99236265  0.35913116  0.62764985     0.80700
O419        O  0.99642820  0.28000747  0.58556194    -0.57800
O420        O  0.99886530  0.26498648  0.63326156    -0.48700
C421        C  0.03232088  0.32403734  0.56839248     0.73300
O422        O  0.02557927  0.34521163  0.58541659    -0.43500
C423        C  0.03209084  0.29601657  0.66722204     0.78100
O424        O  0.00771109  0.35931049  0.63592613    -0.55400
O425        O  0.01755982  0.30818334  0.66964369    -0.45500
O426        O  0.98752110  0.33401814  0.61388622    -0.51800
C427        C  0.99230672  0.26015562  0.60657930     0.88200
O428        O  0.02946578  0.29558896  0.57680449    -0.53700
O429        O  0.03691148  0.29058796  0.63940795    -0.57000
In430      In  0.93411569  0.21490569  0.17628377     1.36900
C431        C  0.94437031  0.21005222  0.23590627     0.80700
O432        O  0.90703815  0.22005301  0.19194112    -0.57800
O433        O  0.91271445  0.18597468  0.15611940    -0.48700
C434        C  0.93327905  0.26929991  0.14343521     0.73300
O435        O  0.93224106  0.26872488  0.17309842    -0.43500
C436        C  0.95806943  0.17760522  0.15231854     0.78100
O437        O  0.94795295  0.23384574  0.21885368    -0.55400
O438        O  0.94297756  0.16837065  0.15572856    -0.45500
O439        O  0.93508222  0.18931474  0.22302305    -0.51800
C440        C  0.90163087  0.19877794  0.17338589     0.88200
O441        O  0.93474851  0.24226146  0.13053363    -0.53700
O442        O  0.96093228  0.20616166  0.16038781    -0.57000
In443      In  0.93284344  0.15702257  0.55752918     1.36900
C444        C  0.94342875  0.16108624  0.49810464     0.80700
O445        O  0.90600377  0.15376668  0.53966404    -0.57800
O446        O  0.91114912  0.18490852  0.57816368    -0.48700
C447        C  0.93217002  0.10248716  0.59030284     0.73300
O448        O  0.93163836  0.10308339  0.56060868    -0.43500
C449        C  0.95692638  0.19417142  0.58171708     0.78100
O450        O  0.94572255  0.13641129  0.51470921    -0.55400
O451        O  0.94180983  0.20334290  0.57864467    -0.45500
O452        O  0.93526560  0.18324405  0.51135285    -0.51800
C453        C  0.90033842  0.17375232  0.55928904     0.88200
O454        O  0.93288247  0.12958103  0.60329730    -0.53700
O455        O  0.95977131  0.16577859  0.57310796    -0.57000
In456      In  0.98931401  0.18517785  0.36755873     1.36900
C457        C  0.01171502  0.13928547  0.35599063     0.80700
O458        O  0.97586217  0.16901488  0.32361511    -0.57800
O459        O  0.97130060  0.21635961  0.33999969    -0.48700
C460        C  0.96822127  0.17470296  0.41534724     0.73300
O461        O  0.97074310  0.15416701  0.39409033    -0.43500
C462        C  0.01116691  0.23190569  0.37993152     0.78100
O463        O  0.00240308  0.13898549  0.38011097    -0.55400
O464        O  0.00252206  0.23125681  0.35494430    -0.45500
O465        O  0.00954904  0.16273534  0.33773987    -0.51800
C466        C  0.96848590  0.19540712  0.31927032     0.88200
O467        O  0.97605006  0.20074942  0.41179539    -0.53700
O468        O  0.00859491  0.20895958  0.39865548    -0.57000
In469      In  0.81918120  0.40782878  0.67643524     1.36900
C470        C  0.80870661  0.41132844  0.73581080     0.80700
O471        O  0.84599657  0.40299508  0.69383609    -0.57800
O472        O  0.84112303  0.43474910  0.65560579    -0.48700
C473        C  0.81924469  0.35403814  0.64267710     0.73300
O474        O  0.82045045  0.35402793  0.67231949    -0.43500
C475        C  0.79556855  0.44675346  0.65369245     0.78100
O476        O  0.80545201  0.38762584  0.71842141    -0.55400
O477        O  0.81076941  0.45532068  0.65717055    -0.45500
O478        O  0.81781782  0.43265825  0.72339480    -0.51800
C479        C  0.85184478  0.42285888  0.67424971     0.88200
O480        O  0.81805392  0.38135935  0.63024905    -0.53700
O481        O  0.79243112  0.41812714  0.66114044    -0.57000
In482      In  0.81884686  0.46382966  0.05637762     1.36900
C483        C  0.80803532  0.46005806  0.99718531     0.80700
O484        O  0.84563109  0.46716681  0.03847619    -0.57800
O485        O  0.84061630  0.43629651  0.07730808    -0.48700
C486        C  0.81950141  0.01811662  0.08950834     0.73300
O487        O  0.82154525  0.01752280  0.06003796    -0.43500
C488        C  0.79498243  0.42559016  0.07927554     0.78100
O489        O  0.80523438  0.48419394  0.01427205    -0.55400
O490        O  0.81024465  0.41702490  0.07684653    -0.45500
O491        O  0.81685288  0.43842205  0.00980448    -0.51800
C492        C  0.85137850  0.44744801  0.05829356     0.88200
O493        O  0.81714463  0.49114217  0.10210152    -0.53700
O494        O  0.79192152  0.45400964  0.07096060    -0.57000
In495      In  0.76276058  0.43549981  0.86599067     1.36900
C496        C  0.74088199  0.48206400  0.85389098     0.80700
O497        O  0.77518498  0.45028266  0.82070934    -0.57800
O498        O  0.78202739  0.40526846  0.84046214    -0.48700
C499        C  0.78331388  0.44609741  0.91444654     0.73300
O500        O  0.78140862  0.46616958  0.89253183    -0.43500
C501        C  0.74061945  0.38918610  0.87754290     0.78100
O502        O  0.75070417  0.48294725  0.87730967    -0.55400
O503        O  0.75023555  0.38868505  0.85382129    -0.45500
O504        O  0.74232993  0.45772820  0.83654142    -0.51800
C505        C  0.78379764  0.42502456  0.81823788     0.88200
O506        O  0.77508435  0.42043618  0.91131430    -0.53700
O507        O  0.74243215  0.41297605  0.89550943    -0.57000
In508      In  0.68417792  0.34044963  0.30678593     1.36900
C509        C  0.70716672  0.30016388  0.32935510     0.80700
O510        O  0.66208882  0.31528193  0.32919182    -0.57800
O511        O  0.65779454  0.34152430  0.28686982    -0.48700
C512        C  0.68315700  0.39468892  0.33986301     0.73300
O513        O  0.68589271  0.36783127  0.35241824    -0.43500
C514        C  0.69597423  0.33836608  0.24812344     0.78100
O515        O  0.71052732  0.32911710  0.32364379    -0.55400
O516        O  0.68636137  0.31711046  0.25928258    -0.45500
O517        O  0.69200774  0.29202229  0.32454423    -0.51800
C518        C  0.65170334  0.32410405  0.30835405     0.88200
O519        O  0.68090495  0.39401676  0.31043719    -0.53700
O520        O  0.69907620  0.36148278  0.26639391    -0.57000
In521      In  0.68307557  0.28118594  0.92448138     1.36900
C522        C  0.70553781  0.32206522  0.90113000     0.80700
O523        O  0.66079883  0.30670351  0.90289015    -0.57800
O524        O  0.65678893  0.27996152  0.94496913    -0.48700
C525        C  0.68202097  0.22666322  0.89165148     0.73300
O526        O  0.68468253  0.25347700  0.87892453    -0.43500
C527        C  0.69562786  0.28249074  0.98275811     0.78100
O528        O  0.70899110  0.29297480  0.90579940    -0.55400
O529        O  0.68564958  0.30358640  0.97248057    -0.45500
O530        O  0.69052839  0.33011582  0.90740733    -0.51800
C531        C  0.65056191  0.29780232  0.92395559     0.88200
O532        O  0.67975051  0.22756581  0.92106365    -0.53700
O533        O  0.69881014  0.26006343  0.96375638    -0.57000
In534      In  0.73986513  0.30890824  0.11567375     1.36900
C535        C  0.76027708  0.35820846  0.10401159     0.80700
O536        O  0.75744621  0.28161407  0.14747543    -0.57800
O537        O  0.75204901  0.26185481  0.10236964    -0.48700
C538        C  0.72050741  0.32314244  0.16515758     0.73300
O539        O  0.72710730  0.34437694  0.14798946    -0.43500
C540        C  0.72092080  0.29544048  0.06537095     0.78100
O541        O  0.74479776  0.35854787  0.09665217    -0.55400
O542        O  0.73610098  0.30450474  0.06336585    -0.45500
O543        O  0.76525767  0.33307640  0.11753650    -0.51800
C544        C  0.76003487  0.25937733  0.12799196     0.88200
O545        O  0.72344151  0.29471907  0.15676793    -0.53700
O546        O  0.71528473  0.29303600  0.09308991    -0.57000
In547      In  0.81952055  0.15507980  0.17440814     1.36900
C548        C  0.80909469  0.15918530  0.23397322     0.80700
O549        O  0.84626947  0.15219243  0.19257381    -0.57800
O550        O  0.84132625  0.18226263  0.15313883    -0.48700
C551        C  0.81987932  0.10097747  0.14088753     0.73300
O552        O  0.82135097  0.10124820  0.17048486    -0.43500
C553        C  0.79537501  0.19276009  0.15160825     0.78100
O554        O  0.80713902  0.13414565  0.21772343    -0.55400
O555        O  0.81057356  0.20171181  0.15407648    -0.45500
O556        O  0.81683251  0.18162023  0.22028162    -0.51800
C557        C  0.85203467  0.17161055  0.17250528     0.88200
O558        O  0.81828795  0.12817525  0.12835587    -0.53700
O559        O  0.79251644  0.16424228  0.15987684    -0.57000
In560      In  0.81819579  0.21756684  0.55740438     1.36900
C561        C  0.80786243  0.21321249  0.49779069     0.80700
O562        O  0.84508670  0.22147109  0.54012429    -0.57800
O563        O  0.83991897  0.18975483  0.57818982    -0.48700
C564        C  0.81879519  0.27162454  0.59076822     0.73300
O565        O  0.81987714  0.27137641  0.56110578    -0.43500
C566        C  0.79401149  0.18013449  0.58052570     0.78100
O567        O  0.80552413  0.23805100  0.51414950    -0.55400
O568        O  0.80907653  0.17079344  0.57700952    -0.45500
O569        O  0.81590789  0.19114000  0.51140737    -0.51800
C570        C  0.85075303  0.20128658  0.55955504     0.88200
O571        O  0.81742603  0.24443053  0.60341680    -0.53700
O572        O  0.79129643  0.20896671  0.57319182    -0.57000
In573      In  0.76400571  0.18588979  0.36519509     1.36900
C574        C  0.74196555  0.13925613  0.37693237     0.80700
O575        O  0.77597156  0.17205378  0.41130354    -0.57800
O576        O  0.78274169  0.21699121  0.39128553    -0.48700
C577        C  0.78486809  0.17430608  0.31715715     0.73300
O578        O  0.78383401  0.15584249  0.34060243    -0.43500
C579        C  0.74220260  0.23280820  0.35294547     0.78100
O580        O  0.75161579  0.13878941  0.35327842    -0.55400
O581        O  0.75212833  0.23370287  0.37620016    -0.45500
O582        O  0.74369927  0.16314271  0.39478263    -0.51800
C583        C  0.78428245  0.19768460  0.41397720     0.88200
O584        O  0.77575425  0.19900848  0.31870628    -0.53700
O585        O  0.74349012  0.20827487  0.33583218    -0.57000
In586      In  0.68323899  0.08964053  0.80686810     1.36900
C587        C  0.70591464  0.04914819  0.82983188     0.80700
O588        O  0.66132608  0.06290560  0.82787612    -0.57800
O589        O  0.65673425  0.09249402  0.78781269    -0.48700
C590        C  0.68218639  0.14356974  0.84056114     0.73300
O591        O  0.68502194  0.11659889  0.85282135    -0.43500
C592        C  0.69538995  0.08758494  0.74841218     0.78100
O593        O  0.70934633  0.07815473  0.82456260    -0.55400
O594        O  0.68516469  0.06702084  0.75889047    -0.45500
O595        O  0.69082704  0.04099728  0.82429655    -0.51800
C596        C  0.65080228  0.07340824  0.80805729     0.88200
O597        O  0.67982735  0.14313161  0.81115797    -0.53700
O598        O  0.69888467  0.11004468  0.76719293    -0.57000
In599      In  0.68397669  0.03204034  0.42374338     1.36900
C600        C  0.70669912  0.07233325  0.40031191     0.80700
O601        O  0.66152327  0.05668216  0.40196432    -0.57800
O602        O  0.65773661  0.03039490  0.44439738    -0.48700
C603        C  0.68308477  0.47768911  0.39086206     0.73300
O604        O  0.68542157  0.50459799  0.37812905    -0.43500
C605        C  0.69615606  0.03441934  0.48217185     0.78100
O606        O  0.71011413  0.04339168  0.40592049    -0.55400
O607        O  0.68663577  0.05582764  0.47101638    -0.45500
O608        O  0.69159124  0.08048384  0.40563140    -0.51800
C609        C  0.65136300  0.04770843  0.42311740     0.88200
O610        O  0.68115417  0.47837379  0.42036612    -0.53700
O611        O  0.69905114  0.01116609  0.46396744    -0.57000
In612      In  0.73979157  0.06179605  0.61555971     1.36900
C613        C  0.76070313  0.01335684  0.62749621     0.80700
O614        O  0.75776452  0.08935287  0.58480884    -0.57800
O615        O  0.75068846  0.10999335  0.62872858    -0.48700
C616        C  0.72065633  0.04831043  0.56549006     0.73300
O617        O  0.72754024  0.02680629  0.58193284    -0.43500
C618        C  0.72077631  0.07373768  0.66608010     0.78100
O619        O  0.74504380  0.01178558  0.63325003    -0.55400
O620        O  0.73594507  0.06459181  0.66799117    -0.45500
O621        O  0.76560397  0.03921542  0.61523009    -0.51800
C622        C  0.75931388  0.11235416  0.60382356     0.88200
O623        O  0.72324007  0.07652021  0.57484377    -0.53700
O624        O  0.71517790  0.07672093  0.63840576    -0.57000
C625        C  0.70372289  0.03714081  0.51288087    -0.10200
C626        C  0.71099705  0.04139058  0.53757524    -0.11700
C627        C  0.70315378  0.08462315  0.71792169    -0.10200
C628        C  0.71071868  0.08024216  0.69357226    -0.11700
C629        C  0.71925954  0.09475582  0.38983044    -0.10200
C630        C  0.72977432  0.11456704  0.38313207    -0.11700
C631        C  0.78085353  0.15888746  0.59096385    -0.10200
C632        C  0.77051214  0.13873903  0.59771326    -0.11700
C633        C  0.80114304  0.20955793  0.46648543    -0.10200
C634        C  0.79418797  0.20473242  0.44156967    -0.11700
C635        C  0.80224890  0.16264839  0.26520993    -0.10200
C636        C  0.79509576  0.16732031  0.28995961    -0.11700
C637        C  0.78221700  0.21402742  0.14122377    -0.10200
C638        C  0.77166372  0.23373977  0.13437610    -0.11700
C639        C  0.68180725  0.17269969  0.85875521    -0.10200
C640        C  0.68174743  0.19723473  0.87391412    -0.11700
C641        C  0.70338280  0.28474665  0.01335293    -0.10200
C642        C  0.71087173  0.28873889  0.03787245    -0.11700
C643        C  0.68276670  0.44839840  0.37300503    -0.10200
C644        C  0.68278159  0.42392173  0.35780946    -0.11700
C645        C  0.71979041  0.27772193  0.33956881    -0.10200
C646        C  0.73020492  0.25775115  0.34637480    -0.11700
C647        C  0.70350059  0.33545078  0.21741182    -0.10200
C648        C  0.71078757  0.33066218  0.19283555    -0.11700
C649        C  0.72882772  0.50683485  0.84735223    -0.10200
C650        C  0.71841269  0.02669630  0.84037489    -0.11700
C651        C  0.71795603  0.34469971  0.89056315    -0.10200
C652        C  0.72841055  0.36456890  0.88375976    -0.11700
C653        C  0.81979358  0.04737353  0.10747408    -0.10200
C654        C  0.81991670  0.07182346  0.12274347    -0.11700
C655        C  0.77161513  0.38408552  0.09687255    -0.10200
C656        C  0.78198094  0.40403693  0.08973578    -0.11700
C657        C  0.79359448  0.45232053  0.94165988    -0.10200
C658        C  0.80094718  0.45664718  0.96621591    -0.11700
C659        C  0.81918711  0.32504978  0.62434945    -0.10200
C660        C  0.81905500  0.30074358  0.60889683    -0.11700
C661        C  0.78270743  0.46838922  0.64281167    -0.10200
C662        C  0.77229371  0.48803566  0.63512393    -0.11700
C663        C  0.79431754  0.41887260  0.79135243    -0.10200
C664        C  0.80173826  0.41466323  0.76686242    -0.11700
C665        C  0.88287291  0.18339506  0.55993378    -0.10200
C666        C  0.86823418  0.19173823  0.56008831    -0.11700
C667        C  0.95040278  0.16443062  0.46699800    -0.10200
C668        C  0.95777356  0.16858826  0.44240776    -0.11700
C669        C  0.86949230  0.18122350  0.17201985    -0.10200
C670        C  0.88414134  0.18944391  0.17230219    -0.11700
C671        C  0.95826420  0.20150333  0.29188917    -0.10200
C672        C  0.95111280  0.20603618  0.26712782    -0.11700
C673        C  0.98056767  0.23461027  0.60048148    -0.10200
C674        C  0.97001330  0.21508223  0.59311590    -0.11700
C675        C  0.03346760  0.27695388  0.39365178    -0.10200
C676        C  0.02315561  0.25684153  0.38666459    -0.11700
C677        C  0.04205518  0.33160852  0.54076125    -0.10200
C678        C  0.04929275  0.33625790  0.51611497    -0.11700
C679        C  0.04974357  0.28503542  0.71888194    -0.10200
C680        C  0.04229187  0.28911402  0.69438755    -0.11700
C681        C  0.03355130  0.34453387  0.84148777    -0.10200
C682        C  0.02311123  0.36440965  0.84844145    -0.11700
C683        C  0.93216686  0.07310679  0.60807973    -0.10200
C684        C  0.93248322  0.04859973  0.62325593    -0.11700
C685        C  0.88410424  0.43962265  0.67322476    -0.10200
C686        C  0.86941254  0.43168446  0.67347558    -0.11700
C687        C  0.97074995  0.40535267  0.64115850    -0.10200
C688        C  0.98101712  0.38516459  0.63418292    -0.11700
C689        C  0.95152783  0.45796589  0.76573680    -0.10200
C690        C  0.95869903  0.45358498  0.79053994    -0.11700
C691        C  0.93281653  0.32306755  0.11032890    -0.10200
C692        C  0.93289817  0.29860572  0.12557356    -0.11700
C693        C  0.88361957  0.43035503  0.05931489    -0.10200
C694        C  0.86890035  0.43817505  0.05900644    -0.11700
C695        C  0.95198472  0.41392091  0.96868431    -0.10200
C696        C  0.95912390  0.41854051  0.94392351    -0.11700
C697        C  0.97110900  0.15661466  0.14104139    -0.10200
C698        C  0.98152583  0.13696068  0.13346051    -0.11700
C699        C  0.98080900  0.48652367  0.10027472    -0.10200
C700        C  0.97037700  0.46655297  0.09344434    -0.11700
C701        C  0.06986597  0.42382658  0.37505850    -0.10200
C702        C  0.07003310  0.44820578  0.35972294    -0.11700
C703        C  0.02390962  0.11474478  0.34956684    -0.10200
C704        C  0.03427362  0.09485675  0.34245466    -0.11700
C705        C  0.04206392  0.03989463  0.19452275    -0.10200
C706        C  0.04940292  0.03552129  0.21909459    -0.11700
C707        C  0.07002668  0.17407158  0.87511620    -0.10200
C708        C  0.07004541  0.19848223  0.85985029    -0.11700
C709        C  0.03290808  0.02884073  0.89305672    -0.10200
C710        C  0.02255642  0.50884333  0.88592453    -0.11700
C711        C  0.04321637  0.08197023  0.04103337    -0.10200
C712        C  0.05044044  0.08622907  0.01632592    -0.11700
C713        C  0.61917292  0.06503889  0.42339907    -0.10200
C714        C  0.63383640  0.05689632  0.42315051    -0.11700
C715        C  0.54330928  0.08209756  0.54046213    -0.10200
C716        C  0.55057534  0.08631275  0.51578990    -0.11700
C717        C  0.61869529  0.05589503  0.80854191    -0.10200
C718        C  0.63333765  0.06404161  0.80838481    -0.11700
C719        C  0.54209161  0.03999683  0.69367645    -0.10200
C720        C  0.54939874  0.03550810  0.71826199    -0.11700
C721        C  0.53324058  0.02900998  0.39293179    -0.10200
C722        C  0.52290552  0.50892835  0.38596334    -0.11700
C723        C  0.46990214  0.46769595  0.59344947    -0.10200
C724        C  0.48036321  0.48762480  0.60024145    -0.11700
C725        C  0.45235278  0.41404827  0.46895765    -0.10200
C726        C  0.45961570  0.41854082  0.44430927    -0.11700
C727        C  0.45199392  0.45782559  0.26608575    -0.10200
C728        C  0.45925405  0.45338778  0.29079069    -0.11700
C729        C  0.52365092  0.11366925  0.84941217    -0.10200
C730        C  0.53396425  0.09376738  0.84213202    -0.11700
C731        C  0.43258666  0.04849843  0.12391081    -0.10200
C732        C  0.43234025  0.07295519  0.10863277    -0.11700
C733        C  0.45046843  0.16391654  0.96699075    -0.10200
C734        C  0.45779492  0.16806558  0.94234630    -0.11700
C735        C  0.43277403  0.29892845  0.62506129    -0.10200
C736        C  0.43267037  0.32336964  0.60977878    -0.11700
C737        C  0.48169543  0.13790609  0.63275484    -0.10200
C738        C  0.47124129  0.15749027  0.64035235    -0.11700
C739        C  0.45158945  0.20597779  0.76655283    -0.10200
C740        C  0.45869623  0.20125313  0.79132464    -0.11700
C741        C  0.48082606  0.23429895  0.10028109    -0.10200
C742        C  0.47026007  0.21478653  0.09293132    -0.11700
C743        C  0.48088586  0.38458424  0.13466962    -0.10200
C744        C  0.47059959  0.40473480  0.14167437    -0.11700
C745        C  0.57059454  0.19917593  0.36039902    -0.10200
C746        C  0.57053134  0.17472313  0.37559558    -0.11700
C747        C  0.63421352  0.31477850  0.30893378    -0.10200
C748        C  0.61952727  0.30683552  0.30918949    -0.11700
C749        C  0.53374563  0.34391908  0.34211141    -0.10200
C750        C  0.52329008  0.36373542  0.34909090    -0.11700
C751        C  0.54993823  0.28535458  0.21925708    -0.10200
C752        C  0.54240261  0.28931148  0.19482350    -0.11700
C753        C  0.56972289  0.44765604  0.85909301    -0.10200
C754        C  0.56953487  0.42334470  0.87453030    -0.11700
C755        C  0.63310114  0.30754177  0.92417447    -0.10200
C756        C  0.61843773  0.31574290  0.92458455    -0.11700
C757        C  0.53321884  0.27671469  0.89352216    -0.10200
C758        C  0.52301348  0.25644342  0.88647470    -0.11700
C759        C  0.54931411  0.33617104  0.01628937    -0.10200
C760        C  0.54215147  0.33158961  0.04102955    -0.11700
C761        C  0.11890985  0.05625485  0.30919453    -0.10200
C762        C  0.13354753  0.06441086  0.30903472    -0.11700
C763        C  0.21078269  0.08080005  0.19400777    -0.10200
C764        C  0.20324488  0.08545099  0.21834148    -0.11700
C765        C  0.11886917  0.06536532  0.92389327    -0.10200
C766        C  0.13354369  0.05729507  0.92370806    -0.11700
C767        C  0.21073966  0.04030283  0.03839618    -0.10200
C768        C  0.20342825  0.03612016  0.01372128    -0.11700
C769        C  0.22910336  0.50703774  0.34712576    -0.10200
C770        C  0.21865514  0.02686269  0.34017830    -0.11700
C771        C  0.36880838  0.43953899  0.55941993    -0.10200
C772        C  0.38350028  0.43151615  0.55957837    -0.11700
C773        C  0.30070360  0.45806344  0.46712078    -0.10200
C774        C  0.29341098  0.45362538  0.44251842    -0.11700
C775        C  0.36947268  0.43124533  0.17404453    -0.10200
C776        C  0.38416655  0.43920929  0.17390277    -0.11700
C777        C  0.28261538  0.46742077  0.14256971    -0.10200
C778        C  0.27215920  0.48708540  0.13514912    -0.11700
C779        C  0.30171377  0.41460763  0.26680235    -0.10200
C780        C  0.29433463  0.41880053  0.29134471    -0.11700
C781        C  0.27164440  0.38518845  0.59783013    -0.10200
C782        C  0.28196610  0.40521793  0.59070332    -0.11700
C783        C  0.18203008  0.19759039  0.37458456    -0.10200
C784        C  0.18208071  0.17305403  0.35943162    -0.11700
C785        C  0.13349549  0.30805183  0.42474693    -0.10200
C786        C  0.11880933  0.31615566  0.42506958    -0.11700
C787        C  0.22916692  0.36421543  0.38432682    -0.10200
C788        C  0.21869754  0.34438835  0.39114009    -0.11700
C789        C  0.20358598  0.28564183  0.51406083    -0.10200
C790        C  0.21103596  0.28978384  0.53859818    -0.11700
C791        C  0.18198815  0.42365726  0.85852830    -0.10200
C792        C  0.18200443  0.44812747  0.87375524    -0.11700
C793        C  0.13373127  0.31412677  0.80932791    -0.10200
C794        C  0.11904948  0.30613498  0.80953654    -0.11700
C795        C  0.20354363  0.33635612  0.71829951    -0.10200
C796        C  0.21090408  0.33171793  0.69376194    -0.11700
C797        C  0.22943294  0.25699836  0.84707532    -0.10200
C798        C  0.21904301  0.27700899  0.84022612    -0.11700
C799        C  0.21896607  0.09452137  0.89115783    -0.10200
C800        C  0.22946996  0.11433464  0.88442456    -0.11700
C801        C  0.31909372  0.29971467  0.10943674    -0.10200
C802        C  0.31918941  0.32409071  0.12480589    -0.11700
C803        C  0.38299572  0.18275700  0.05994693    -0.10200
C804        C  0.36835061  0.19109541  0.06004881    -0.11700
C805        C  0.27086914  0.13723263  0.09770334    -0.10200
C806        C  0.28123010  0.15729182  0.09081838    -0.11700
C807        C  0.29404490  0.20478891  0.94181217    -0.10200
C808        C  0.30108401  0.20962239  0.96662697    -0.11700
C809        C  0.31975793  0.07277076  0.62399042    -0.10200
C810        C  0.31962126  0.04839715  0.60862504    -0.11700
C811        C  0.36945344  0.18175572  0.67346637    -0.10200
C812        C  0.38412756  0.18988034  0.67352325    -0.11700
C813        C  0.28217294  0.21498056  0.64255521    -0.10200
C814        C  0.27165711  0.23472976  0.63561615    -0.11700
C815        C  0.30217028  0.16355551  0.76645345    -0.10200
C816        C  0.29493587  0.16807721  0.79112319    -0.11700
In817      In  0.31941615  0.65588781  0.67576724     1.36900
C818        C  0.30903280  0.66003172  0.73527344     0.80700
O819        O  0.34622462  0.65236168  0.69359707    -0.57800
O820        O  0.34120326  0.68353461  0.65503028    -0.48700
C821        C  0.31974447  0.60186953  0.64218634     0.73300
O822        O  0.32124645  0.60207435  0.67177538    -0.43500
C823        C  0.29529640  0.69364996  0.65297513     0.78100
O824        O  0.30668177  0.63528103  0.71879114    -0.55400
O825        O  0.31056412  0.70232311  0.65484881    -0.45500
O826        O  0.31716291  0.68214078  0.72185673    -0.51800
C827        C  0.35196391  0.67228275  0.67397274     0.88200
O828        O  0.31814338  0.62908350  0.62970237    -0.53700
O829        O  0.29234406  0.66535933  0.66184810    -0.57000
In830      In  0.31828793  0.71679034  0.05745552     1.36900
C831        C  0.30788607  0.71312735  0.99785996     0.80700
O832        O  0.34522993  0.72128744  0.04054914    -0.57800
O833        O  0.33997543  0.68857318  0.07777339    -0.48700
C834        C  0.31889122  0.77065647  0.09116737     0.73300
O835        O  0.31980331  0.77059043  0.06148302    -0.43500
C836        C  0.29429219  0.67872319  0.08034031     0.78100
O837        O  0.30481693  0.73711624  0.01499397    -0.55400
O838        O  0.30933301  0.66951058  0.07624438    -0.45500
O839        O  0.31672044  0.69164821  0.01066465    -0.51800
C840        C  0.35085718  0.70061629  0.05954048     0.88200
O841        O  0.31773701  0.74335698  0.10368314    -0.53700
O842        O  0.29150727  0.70767702  0.07364317    -0.57000
In843      In  0.26356391  0.68572291  0.86602435     1.36900
C844        C  0.24150185  0.73218167  0.85373163     0.80700
O845        O  0.27586645  0.69983998  0.82035596    -0.57800
O846        O  0.28305369  0.65543086  0.84092524    -0.48700
C847        C  0.28404798  0.69768816  0.91438405     0.73300
O848        O  0.28188178  0.71745903  0.89227573    -0.43500
C849        C  0.24162223  0.63903937  0.87805001     0.78100
O850        O  0.25097736  0.73269203  0.87763969    -0.55400
O851        O  0.25088921  0.63897332  0.85386452    -0.45500
O852        O  0.24333474  0.70820534  0.83602263    -0.51800
C853        C  0.28459419  0.67468882  0.81821240     0.88200
O854        O  0.27625507  0.67152656  0.91132657    -0.53700
O855        O  0.24367992  0.66256249  0.89624455    -0.57000
In856      In  0.18365732  0.84023019  0.80736784     1.36900
C857        C  0.20648972  0.79958767  0.82997531     0.80700
O858        O  0.16154635  0.81519340  0.82987537    -0.57800
O859        O  0.15732466  0.84074604  0.78713226    -0.48700
C860        C  0.18242280  0.89443074  0.84054086     0.73300
O861        O  0.18527311  0.86758575  0.85304354    -0.43500
C862        C  0.19582977  0.83890979  0.74890162     0.78100
O863        O  0.20980748  0.82874729  0.82527703    -0.55400
O864        O  0.18614513  0.81753275  0.75960241    -0.45500
O865        O  0.19144644  0.79139864  0.82412654    -0.51800
C866        C  0.15120472  0.82359345  0.80879778     0.88200
O867        O  0.18014545  0.89376306  0.81111639    -0.53700
O868        O  0.19881294  0.86179294  0.76752113    -0.57000
In869      In  0.18347310  0.78156482  0.42507256     1.36900
C870        C  0.20616700  0.82197396  0.40170754     0.80700
O871        O  0.16129026  0.80770414  0.40383733    -0.57800
O872        O  0.15711806  0.78000733  0.44526481    -0.48700
C873        C  0.18231329  0.72702658  0.39229322     0.73300
O874        O  0.18452760  0.75391494  0.37942350    -0.43500
C875        C  0.19588170  0.78315530  0.48344108     0.78100
O876        O  0.20950612  0.79289563  0.40667511    -0.55400
O877        O  0.18565523  0.80384393  0.47319895    -0.45500
O878        O  0.19115699  0.83024656  0.40767801    -0.51800
C879        C  0.15096982  0.79834073  0.42457323     0.88200
O880        O  0.18051653  0.72786728  0.42181895    -0.53700
O881        O  0.19936828  0.76095500  0.46436889    -0.57000
In882      In  0.23995188  0.80993613  0.61653754     1.36900
C883        C  0.26033951  0.85924368  0.60492997     0.80700
O884        O  0.25722641  0.78237327  0.64870663    -0.57800
O885        O  0.25237300  0.76312757  0.60317878    -0.48700
C886        C  0.22062287  0.82421991  0.66606714     0.73300
O887        O  0.22753158  0.84543488  0.64929728    -0.43500
C888        C  0.22104007  0.79655828  0.56613758     0.78100
O889        O  0.24479742  0.85978130  0.59804584    -0.55400
O890        O  0.23618216  0.80584179  0.56418786    -0.45500
O891        O  0.26540449  0.83388639  0.61794136    -0.51800
C892        C  0.26006702  0.76038067  0.62907898     0.88200
O893        O  0.22323277  0.79581452  0.65724630    -0.53700
O894        O  0.21541224  0.79395926  0.59384132    -0.57000
In895      In  0.31920172  0.90727545  0.17639006     1.36900
C896        C  0.30866124  0.91119633  0.23573562     0.80700
O897        O  0.34601609  0.90216684  0.19379604    -0.57800
O898        O  0.34118450  0.93460314  0.15612673    -0.48700
C899        C  0.31924193  0.85323215  0.14292958     0.73300
O900        O  0.32041575  0.85343610  0.17257009    -0.43500
C901        C  0.29553044  0.94586086  0.15333383     0.78100
O902        O  0.30558590  0.88724104  0.21858099    -0.55400
O903        O  0.31078430  0.95434943  0.15614504    -0.45500
O904        O  0.31760706  0.93263942  0.22309085    -0.51800
C905        C  0.35189051  0.92238924  0.17459895     0.88200
O906        O  0.31810407  0.88048311  0.13032459    -0.53700
O907        O  0.29238393  0.91743570  0.16147564    -0.57000
In908      In  0.31871834  0.96511985  0.55722870     1.36900
C909        C  0.30779795  0.96141167  0.49809528     0.80700
O910        O  0.34546161  0.96847725  0.53904663    -0.57800
O911        O  0.34059354  0.93785065  0.57811357    -0.48700
C912        C  0.31933520  0.51924335  0.59053756     0.73300
O913        O  0.32118779  0.51882650  0.56101731    -0.43500
C914        C  0.29492784  0.92681146  0.58022028     0.78100
O915        O  0.30523908  0.98573679  0.51505870    -0.55400
O916        O  0.31014472  0.91814087  0.57726398    -0.45500
O917        O  0.31640986  0.93954708  0.51081961    -0.51800
C918        C  0.35128621  0.94888144  0.55890295     0.88200
O919        O  0.31717327  0.99217947  0.60307911    -0.53700
O920        O  0.29187447  0.95537758  0.57238721    -0.57000
In921      In  0.26304372  0.93581362  0.36634170     1.36900
C922        C  0.24125011  0.88901113  0.37808619     0.80700
O923        O  0.27429011  0.92218736  0.41305851    -0.57800
O924        O  0.28223852  0.96600529  0.39215237    -0.48700
C925        C  0.28386822  0.92505696  0.31829665     0.73300
O926        O  0.28289335  0.90626178  0.34148559    -0.43500
C927        C  0.24117381  0.98232547  0.35382338     0.78100
O928        O  0.25155790  0.88774809  0.35541348    -0.55400
O929        O  0.25162507  0.98417732  0.37622821    -0.45500
O930        O  0.24221965  0.91379141  0.39494712    -0.51800
C931        C  0.28324929  0.94705719  0.41521394     0.88200
O932        O  0.27455598  0.94947656  0.31992821    -0.53700
O933        O  0.24200145  0.95706084  0.33766317    -0.57000
In934      In  0.18358218  0.53176295  0.92459463     1.36900
C935        C  0.20638020  0.57209980  0.90150512     0.80700
O936        O  0.16124698  0.55658292  0.90256751    -0.57800
O937        O  0.15735141  0.53078694  0.94526717    -0.48700
C938        C  0.18244221  0.97741498  0.89164691     0.73300
O939        O  0.18503160  0.00427216  0.87897414    -0.43500
C940        C  0.19581120  0.53361472  0.98302295     0.78100
O941        O  0.20974856  0.54310122  0.90691282    -0.55400
O942        O  0.18619327  0.55501496  0.97214273    -0.45500
O943        O  0.19128138  0.58029056  0.90683887    -0.51800
C944        C  0.15104879  0.54796220  0.92380411     0.88200
O945        O  0.18039267  0.97814758  0.92112299    -0.53700
O946        O  0.19876088  0.51060198  0.96455253    -0.57000
In947      In  0.18342057  0.59010907  0.30735832     1.36900
C948        C  0.20613340  0.54938928  0.32985939     0.80700
O949        O  0.16150258  0.56366576  0.32870643    -0.57800
O950        O  0.15694220  0.59261084  0.28817311    -0.48700
C951        C  0.18243249  0.64395516  0.34118500     0.73300
O952        O  0.18548824  0.61700844  0.35331203    -0.43500
C953        C  0.19548769  0.58836298  0.24884388     0.78100
O954        O  0.20957598  0.57840169  0.32464850    -0.55400
O955        O  0.18531714  0.56769861  0.25931492    -0.45500
O956        O  0.19100908  0.54133367  0.32451751    -0.51800
C957        C  0.15100037  0.57382533  0.30867364     0.88200
O958        O  0.17982604  0.64353225  0.31185576    -0.53700
O959        O  0.19895589  0.61081293  0.26766150    -0.57000
In960      In  0.23972921  0.56104607  0.11608519     1.36900
C961        C  0.26058321  0.51251423  0.12780701     0.80700
O962        O  0.25748712  0.58846119  0.08478341    -0.57800
O963        O  0.25127587  0.60866149  0.12934345    -0.48700
C964        C  0.22044616  0.54730240  0.06624789     0.73300
O965        O  0.22753365  0.52589007  0.08250661    -0.43500
C966        C  0.22078160  0.57375550  0.16655721     0.78100
O967        O  0.24492473  0.51096575  0.13363584    -0.55400
O968        O  0.23567042  0.56310671  0.16852830    -0.45500
O969        O  0.26550737  0.53842897  0.11568471    -0.51800
C970        C  0.25953690  0.61111849  0.10402688     0.88200
O971        O  0.22287910  0.57552149  0.07570783    -0.53700
O972        O  0.21540756  0.57774328  0.13885654    -0.57000
In973      In  0.56826266  0.84052477  0.92655648     1.36900
C974        C  0.54559794  0.79954554  0.90397396     0.80700
O975        O  0.59041083  0.81477214  0.90501086    -0.57800
O976        O  0.59481263  0.84322838  0.94582520    -0.48700
C977        C  0.56906924  0.89436258  0.89282520     0.73300
O978        O  0.56633089  0.86735921  0.88061092    -0.43500
C979        C  0.55663575  0.83879874  0.98537986     0.78100
O980        O  0.54191898  0.82825987  0.91014953    -0.55400
O981        O  0.56645194  0.81777461  0.97444204    -0.45500
O982        O  0.56086613  0.79199084  0.90847785    -0.51800
C983        C  0.60088823  0.82486030  0.92511170     0.88200
O984        O  0.57132697  0.89405793  0.92224286    -0.53700
O985        O  0.55315989  0.86141573  0.96673888    -0.57000
In986      In  0.56944179  0.78190356  0.30846806     1.36900
C987        C  0.54641101  0.82179656  0.33146952     0.80700
O988        O  0.59167069  0.80787084  0.32948004    -0.57800
O989        O  0.59582413  0.77924857  0.28867549    -0.48700
C990        C  0.57035159  0.72820915  0.34218874     0.73300
O991        O  0.56820321  0.75533174  0.35457068    -0.43500
C992        C  0.55751106  0.78317397  0.24994224     0.78100
O993        O  0.54321926  0.79269142  0.32623734    -0.55400
O994        O  0.56688107  0.80494172  0.26085076    -0.45500
O995        O  0.56141870  0.83036481  0.32578235    -0.51800
C996        C  0.60200700  0.79773013  0.30916418     0.88200
O997        O  0.57213926  0.72838395  0.31265519    -0.53700
O998        O  0.55466492  0.76014033  0.26844251    -0.57000
In999      In  0.51290865  0.80938253  0.11781183     1.36900
C1000       C  0.49231461  0.85869166  0.12806424     0.80700
O1001       O  0.49661587  0.77988634  0.08561984    -0.57800
O1002       O  0.49912138  0.76452557  0.13319603    -0.48700
C1003       C  0.53245053  0.82401279  0.06870375     0.73300
O1004       O  0.52546723  0.84513482  0.08545733    -0.43500
C1005       C  0.53218537  0.79605241  0.16761924     0.78100
O1006       O  0.50767060  0.85903677  0.13630151    -0.55400
O1007       O  0.51757867  0.80790942  0.16997690    -0.45500
O1008       O  0.48755072  0.83355097  0.11425683    -0.51800
C1009       C  0.49254824  0.75985029  0.10650076     0.88200
O1010       O  0.52983930  0.79556553  0.07738672    -0.53700
O1011       O  0.53707967  0.79080148  0.13981817    -0.57000
In1012     In  0.43418016  0.71537224  0.67603377     1.36900
C1013       C  0.44474233  0.71016996  0.73543352     0.80700
O1014       O  0.40721690  0.72048433  0.69249219    -0.57800
O1015       O  0.41259530  0.68637271  0.65655451    -0.48700
C1016       C  0.43319748  0.76968992  0.64303129     0.73300
O1017       O  0.43226158  0.76920349  0.67271053    -0.43500
C1018       C  0.45816376  0.67836788  0.65170376     0.78100
O1019       O  0.44815595  0.73417291  0.71853332    -0.55400
O1020       O  0.44302950  0.66919126  0.65464994    -0.45500
O1021       O  0.43547610  0.68941858  0.72251744    -0.51800
C1022       C  0.40164888  0.69918387  0.67412674     0.88200
O1023       O  0.43461592  0.74261034  0.63020094    -0.53700
O1024       O  0.46103999  0.70674053  0.66035565    -0.57000
In1025     In  0.43303232  0.65665312  0.05764719     1.36900
C1026       C  0.44354604  0.66062243  0.99814681     0.80700
O1027       O  0.40620910  0.65333330  0.03965785    -0.57800
O1028       O  0.41124695  0.68424072  0.07838310    -0.48700
C1029       C  0.43238989  0.60225698  0.09068009     0.73300
O1030       O  0.43221769  0.60268703  0.06096048    -0.43500
C1031       C  0.45714862  0.69387995  0.08163322     0.78100
O1032       O  0.44577727  0.63589902  0.01471952    -0.55400
O1033       O  0.44211189  0.70327645  0.07794285    -0.45500
O1034       O  0.43548724  0.68286739  0.01147064    -0.51800
C1035       C  0.40047977  0.67316490  0.05937257     0.88200
O1036       O  0.43275501  0.62944016  0.10355261    -0.53700
O1037       O  0.45989097  0.66523298  0.07376423    -0.57000
In1038     In  0.48934861  0.68451855  0.86743829     1.36900
C1039       C  0.51157822  0.63837348  0.85590643     0.80700
O1040       O  0.47626405  0.66866361  0.82301703    -0.57800
O1041       O  0.47130833  0.71567327  0.83994948    -0.48700
C1042       C  0.46823060  0.67417818  0.91525129     0.73300
O1043       O  0.47037011  0.65397279  0.89354612    -0.43500
C1044       C  0.51114545  0.73133833  0.87971478     0.78100
O1045       O  0.50216462  0.63803017  0.87988986    -0.55400
O1046       O  0.50227641  0.73090587  0.85500121    -0.45500
O1047       O  0.50962470  0.66202267  0.83783069    -0.51800
C1048       C  0.46876965  0.69496803  0.81885661     0.88200
O1049       O  0.47643842  0.69985524  0.91212015    -0.53700
O1050       O  0.50887360  0.70806192  0.89817674    -0.57000
In1051     In  0.43414077  0.96519088  0.17556933     1.36900
C1052       C  0.44495349  0.96134871  0.23498148     0.80700
O1053       O  0.40736345  0.96915336  0.19329355    -0.57800
O1054       O  0.41241404  0.93689668  0.15559272    -0.48700
C1055       C  0.43312426  0.51935021  0.14204952     0.73300
O1056       O  0.43180891  0.51898825  0.17166462    -0.43500
C1057       C  0.45775384  0.92657798  0.15225553     0.78100
O1058       O  0.44820670  0.98505104  0.21755104    -0.55400
O1059       O  0.44245334  0.91833935  0.15480889    -0.45500
O1060       O  0.43571169  0.94022096  0.22257858    -0.51800
C1061       C  0.40164787  0.94867170  0.17420976     0.88200
O1062       O  0.43499020  0.99223002  0.12950853    -0.53700
O1063       O  0.46099814  0.95490385  0.16064094    -0.57000
In1064     In  0.43372182  0.90692859  0.55875774     1.36900
C1065       C  0.44511049  0.91062772  0.49984850     0.80700
O1066       O  0.40717484  0.90327500  0.53956015    -0.57800
O1067       O  0.41148906  0.93330052  0.57928979    -0.48700
C1068       C  0.43289132  0.85262539  0.59180358     0.73300
O1069       O  0.43248964  0.85301221  0.56207920    -0.43500
C1070       C  0.45707958  0.94586697  0.58265958     0.78100
O1071       O  0.44800585  0.88673448  0.51724379    -0.55400
O1072       O  0.44209528  0.95474814  0.57732191    -0.45500
O1073       O  0.43596371  0.93201259  0.51203323    -0.51800
C1074       C  0.40105144  0.92242155  0.55952509     0.88200
O1075       O  0.43363931  0.87979764  0.60465421    -0.53700
O1076       O  0.46009213  0.91682175  0.57677578    -0.57000
In1077     In  0.48969250  0.93598545  0.36740916     1.36900
C1078       C  0.51133782  0.88878779  0.35549026     0.80700
O1079       O  0.47878898  0.92261629  0.32018456    -0.57800
O1080       O  0.47004363  0.96549542  0.34165388    -0.48700
C1081       C  0.46966043  0.92506111  0.41680874     0.73300
O1082       O  0.46946148  0.90752414  0.39264656    -0.43500
C1083       C  0.51114057  0.98355524  0.37938079     0.78100
O1084       O  0.50022304  0.88666507  0.37673412    -0.55400
O1085       O  0.50007477  0.98541426  0.35800290    -0.45500
O1086       O  0.51128564  0.91465791  0.34017733    -0.51800
C1087       C  0.46941552  0.94694312  0.31824167     0.88200
O1088       O  0.47970441  0.94844015  0.41549361    -0.53700
O1089       O  0.51120363  0.95766738  0.39467766    -0.57000
In1090     In  0.56874224  0.53075053  0.80759360     1.36900
C1091       C  0.54629371  0.57129776  0.83107329     0.80700
O1092       O  0.59085448  0.55674409  0.82873606    -0.57800
O1093       O  0.59513495  0.52787548  0.78809171    -0.48700
C1094       C  0.56956825  0.97677237  0.84097261     0.73300
O1095       O  0.56746898  0.00383602  0.85349478    -0.43500
C1096       C  0.55681619  0.53281320  0.74904856     0.78100
O1097       O  0.54277041  0.54231828  0.82590915    -0.55400
O1098       O  0.56681266  0.55362688  0.75980005    -0.45500
O1099       O  0.56131384  0.57941687  0.82496863    -0.51800
C1100       C  0.60122776  0.54655823  0.80851114     0.88200
O1101       O  0.57136479  0.97712814  0.81143564    -0.53700
O1102       O  0.55326790  0.51030324  0.76775300    -0.57000
In1103     In  0.56920845  0.59101072  0.42600139     1.36900
C1104       C  0.54595499  0.55121931  0.40333745     0.80700
O1105       O  0.59115640  0.56527889  0.40369238    -0.57800
O1106       O  0.59577328  0.59267218  0.44513280    -0.48700
C1107       C  0.57016298  0.64541196  0.39333112     0.73300
O1108       O  0.56782621  0.61856778  0.38047934    -0.43500
C1109       C  0.55781759  0.58895473  0.48486877     0.78100
O1110       O  0.54282674  0.58034732  0.40860729    -0.55400
O1111       O  0.56721922  0.56751147  0.47347359    -0.45500
O1112       O  0.56098848  0.54266082  0.40872290    -0.51800
C1113       C  0.60169944  0.57460395  0.42403295     0.88200
O1114       O  0.57206209  0.64463304  0.42283347    -0.53700
O1115       O  0.55465541  0.61208737  0.46666490    -0.57000
In1116     In  0.51318675  0.56193754  0.61643856     1.36900
C1117       C  0.49310276  0.61209252  0.62587621     0.80700
O1118       O  0.49687567  0.53199448  0.58455946    -0.57800
O1119       O  0.49841857  0.51864772  0.63283575    -0.48700
C1120       C  0.53332512  0.57519091  0.56792153     0.73300
O1121       O  0.52716992  0.59679514  0.58521950    -0.43500
C1122       C  0.53211254  0.54742719  0.66635114     0.78100
O1123       O  0.50800988  0.61096539  0.63651439    -0.55400
O1124       O  0.51761047  0.55975289  0.66859873    -0.45500
O1125       O  0.48864755  0.58823982  0.60971799    -0.51800
C1126       C  0.49221035  0.51308554  0.60601770     0.88200
O1127       O  0.52960593  0.54695279  0.57581573    -0.53700
O1128       O  0.53710533  0.54233996  0.63856944    -0.57000
In1129     In  0.06884149  0.59082963  0.92633339     1.36900
C1130       C  0.04560188  0.55101718  0.90362632     0.80700
O1131       O  0.09072813  0.56419233  0.90488450    -0.57800
O1132       O  0.09551286  0.59375778  0.94479167    -0.48700
C1133       C  0.06971423  0.64490869  0.89311518     0.73300
O1134       O  0.06747991  0.61791437  0.88051473    -0.43500
C1135       C  0.05760849  0.58885174  0.98533722     0.78100
O1136       O  0.04239717  0.58001774  0.90939220    -0.55400
O1137       O  0.06723932  0.56770475  0.97407052    -0.45500
O1138       O  0.06069299  0.54257002  0.90863172    -0.51800
C1139       C  0.10136958  0.57470466  0.92447502     0.88200
O1140       O  0.07155555  0.64443895  0.92263202    -0.53700
O1141       O  0.05412898  0.61164603  0.96693157    -0.57000
In1142     In  0.06894723  0.53132737  0.30829069     1.36900
C1143       C  0.04659294  0.57223820  0.33158870     0.80700
O1144       O  0.09109730  0.55713171  0.32947112    -0.57800
O1145       O  0.09531499  0.52839332  0.28870356    -0.48700
C1146       C  0.06984379  0.97734642  0.34164566     0.73300
O1147       O  0.06791166  0.00443088  0.35423057    -0.43500
C1148       C  0.05689052  0.53298406  0.24983136     0.78100
O1149       O  0.04314682  0.54306831  0.32737661    -0.55400
O1150       O  0.06710946  0.55360393  0.26021245    -0.45500
O1151       O  0.06150865  0.58037792  0.32468282    -0.51800
C1152       C  0.10144116  0.54697466  0.30917867     0.88200
O1153       O  0.07143682  0.97769080  0.31206647    -0.53700
O1154       O  0.05319277  0.51084233  0.26885727    -0.57000
In1155     In  0.01321742  0.56132752  0.11705925     1.36900
C1156       C  0.99295423  0.61118570  0.12659267     0.80700
O1157       O  0.99701700  0.53143094  0.08495115    -0.57800
O1158       O  0.99874546  0.51755937  0.13307809    -0.48700
C1159       C  0.03327547  0.57491405  0.06850229     0.73300
O1160       O  0.02692271  0.59642285  0.08565870    -0.43500
C1161       C  0.03209667  0.54716408  0.16713849     0.78100
O1162       O  0.00804843  0.61067134  0.13632478    -0.55400
O1163       O  0.01760433  0.55954922  0.16926657    -0.45500
O1164       O  0.98836458  0.58681085  0.11133802    -0.51800
C1165       C  0.99252196  0.51216308  0.10623420     0.88200
O1166       O  0.02978212  0.54661829  0.07653957    -0.53700
O1167       O  0.03709897  0.54185939  0.13940715    -0.57000
In1168     In  0.93390696  0.90632730  0.05886645     1.36900
C1169       C  0.94493441  0.91035101  0.99972200     0.80700
O1170       O  0.90734015  0.90175119  0.04003780    -0.57800
O1171       O  0.91166244  0.93324156  0.07866096    -0.48700
C1172       C  0.93306643  0.85223262  0.09222828     0.73300
O1173       O  0.93311575  0.85243464  0.06249689    -0.43500
C1174       C  0.95747639  0.94485846  0.08270910     0.78100
O1175       O  0.94784610  0.88627570  0.01686803    -0.55400
O1176       O  0.94244386  0.95380699  0.07798971    -0.45500
O1177       O  0.93596454  0.93177304  0.01229549    -0.51800
C1178       C  0.90120806  0.92151945  0.05939478     0.88200
O1179       O  0.93338993  0.87949858  0.10495318    -0.53700
O1180       O  0.96043959  0.91591707  0.07626500    -0.57000
In1181     In  0.93409108  0.96539486  0.67495162     1.36900
C1182       C  0.94464482  0.96145850  0.73450521     0.80700
O1183       O  0.90729551  0.96967186  0.69245000    -0.57800
O1184       O  0.91237160  0.93701966  0.65509050    -0.48700
C1185       C  0.93307601  0.51945924  0.64139572     0.73300
O1186       O  0.93211385  0.51918270  0.67105604    -0.43500
C1187       C  0.95784731  0.92708229  0.65170622     0.78100
O1188       O  0.94778039  0.98537760  0.71728798    -0.55400
O1189       O  0.94256468  0.91870196  0.65413803    -0.45500
O1190       O  0.93566873  0.94010974  0.72179172    -0.51800
C1191       C  0.90159028  0.94903789  0.67352055     0.88200
O1192       O  0.93463152  0.99229713  0.62880945    -0.53700
O1193       O  0.96100981  0.95541318  0.66018523    -0.57000
In1194     In  0.98921467  0.93620184  0.86703649     1.36900
C1195       C  0.01073505  0.98359563  0.87921934     0.80700
O1196       O  0.97884691  0.94900903  0.91477519    -0.57800
O1197       O  0.96919885  0.90730126  0.89243318    -0.48700
C1198       C  0.96883854  0.94715093  0.81801582     0.73300
O1199       O  0.96976040  0.96605682  0.84112197    -0.43500
C1200       C  0.01107025  0.88931588  0.85494534     0.78100
O1201       O  0.00007278  0.98516805  0.85711735    -0.55400
O1202       O  0.00011654  0.88716807  0.87647138    -0.45500
O1203       O  0.01034597  0.95810172  0.89513016    -0.51800
C1204       C  0.96910412  0.92519156  0.91634866     0.88200
O1205       O  0.97793095  0.92247252  0.82024480    -0.53700
O1206       O  0.01075693  0.91505539  0.83943842    -0.57000
In1207     In  0.06892764  0.78148096  0.80830030     1.36900
C1208       C  0.04610310  0.82207302  0.83099843     0.80700
O1209       O  0.09115812  0.80706489  0.82974246    -0.57800
O1210       O  0.09533851  0.77882517  0.78867380    -0.48700
C1211       C  0.06976819  0.72757648  0.84174891     0.73300
O1212       O  0.06739105  0.75459648  0.85419562    -0.43500
C1213       C  0.05717348  0.78275185  0.74967136     0.78100
O1214       O  0.04271858  0.79305341  0.82573080    -0.55400
O1215       O  0.06703446  0.80388019  0.76029196    -0.45500
O1216       O  0.06119876  0.83021138  0.82550873    -0.51800
C1217       C  0.10151447  0.79706868  0.80938084     0.88200
O1218       O  0.07177755  0.72793952  0.81226903    -0.53700
O1219       O  0.05371648  0.76033126  0.76853732    -0.57000
In1220     In  0.06856487  0.84074089  0.42667763     1.36900
C1221       C  0.04589145  0.79974554  0.40404124     0.80700
O1222       O  0.09082427  0.81523211  0.40516356    -0.57800
O1223       O  0.09505570  0.84330849  0.44629054    -0.48700
C1224       C  0.06940559  0.89474494  0.39320931     0.73300
O1225       O  0.06669118  0.86779868  0.38084854    -0.43500
C1226       C  0.05673934  0.83897013  0.48533384     0.78100
O1227       O  0.04224012  0.82847309  0.41018226    -0.55400
O1228       O  0.06671989  0.81811419  0.47459769    -0.45500
O1229       O  0.06116035  0.79217087  0.40854005    -0.51800
C1230       C  0.10122860  0.82517079  0.42547780     0.88200
O1231       O  0.07164052  0.89429019  0.42263054    -0.53700
O1232       O  0.05322381  0.86148474  0.46660035    -0.57000
In1233     In  0.01279321  0.80957345  0.61754706     1.36900
C1234       C  0.99236108  0.85913597  0.62765053     0.80700
O1235       O  0.99642632  0.78001296  0.58556454    -0.57800
O1236       O  0.99886335  0.76499172  0.63326411    -0.48700
C1237       C  0.03231837  0.82404289  0.56839437     0.73300
O1238       O  0.02557942  0.84521697  0.58542230    -0.43500
C1239       C  0.03208884  0.79602061  0.66722568     0.78100
O1240       O  0.00771064  0.85931916  0.63591960    -0.55400
O1241       O  0.01755933  0.80819389  0.66964654    -0.45500
O1242       O  0.98751839  0.83401891  0.61389541    -0.51800
C1243       C  0.99230495  0.76016066  0.60658170     0.88200
O1244       O  0.02946126  0.79559427  0.57680316    -0.53700
O1245       O  0.03690834  0.79058641  0.63941200    -0.57000
In1246     In  0.93411969  0.71490739  0.17628322     1.36900
C1247       C  0.94437502  0.71004869  0.23590475     0.80700
O1248       O  0.90704265  0.72005275  0.19194392    -0.57800
O1249       O  0.91271785  0.68597883  0.15611755    -0.48700
C1250       C  0.93328313  0.76930434  0.14343903     0.73300
O1251       O  0.93224291  0.76872685  0.17310187    -0.43500
C1252       C  0.95807296  0.67760783  0.15231445     0.78100
O1253       O  0.94795708  0.73384406  0.21885415    -0.55400
O1254       O  0.94298011  0.66837599  0.15571757    -0.45500
O1255       O  0.93508725  0.68931161  0.22301988    -0.51800
C1256       C  0.90163487  0.69877996  0.17338682     0.88200
O1257       O  0.93475498  0.74226729  0.13053582    -0.53700
O1258       O  0.96093696  0.70616149  0.16039211    -0.57000
In1259     In  0.93284544  0.65701896  0.55753024     1.36900
C1260       C  0.94343227  0.66108341  0.49810637     0.80700
O1261       O  0.90600524  0.65375957  0.53966816    -0.57800
O1262       O  0.91115177  0.68490960  0.57816095    -0.48700
C1263       C  0.93217068  0.60248257  0.59030326     0.73300
O1264       O  0.93163477  0.60307987  0.56060938    -0.43500
C1265       C  0.95692675  0.69417111  0.58171958     0.78100
O1266       O  0.94572938  0.63641124  0.51471330    -0.55400
O1267       O  0.94180959  0.70333959  0.57864867    -0.45500
O1268       O  0.93526517  0.68323767  0.51135176    -0.51800
C1269       C  0.90034048  0.67374928  0.55928984     0.88200
O1270       O  0.93288826  0.62957595  0.60329781    -0.53700
O1271       O  0.95977319  0.66577934  0.57310879    -0.57000
In1272     In  0.98931722  0.68517686  0.36755977     1.36900
C1273       C  0.01171818  0.63928529  0.35599073     0.80700
O1274       O  0.97586936  0.66901326  0.32361234    -0.57800
O1275       O  0.97130155  0.71635431  0.34000127    -0.48700
C1276       C  0.96822509  0.67470209  0.41534946     0.73300
O1277       O  0.97074424  0.65416848  0.39408931    -0.43500
C1278       C  0.01116909  0.73190671  0.37993079     0.78100
O1279       O  0.00240676  0.63898533  0.38011186    -0.55400
O1280       O  0.00251871  0.73126392  0.35495003    -0.45500
O1281       O  0.00955162  0.66273471  0.33773958    -0.51800
C1282       C  0.96849018  0.69540290  0.31926919     0.88200
O1283       O  0.97605625  0.70074634  0.41180026    -0.53700
O1284       O  0.00860338  0.70895321  0.39864885    -0.57000
In1285     In  0.81918193  0.90782371  0.67643733     1.36900
C1286       C  0.80870714  0.91132508  0.73581254     0.80700
O1287       O  0.84599725  0.90300105  0.69384141    -0.57800
O1288       O  0.84112299  0.93473934  0.65559886    -0.48700
C1289       C  0.81924473  0.85403076  0.64268249     0.73300
O1290       O  0.82045364  0.85402249  0.67232445    -0.43500
C1291       C  0.79556850  0.94674787  0.65369676     0.78100
O1292       O  0.80545467  0.88761978  0.71842525    -0.55400
O1293       O  0.81076952  0.95531506  0.65717264    -0.45500
O1294       O  0.81781654  0.93265651  0.72339473    -0.51800
C1295       C  0.85184490  0.92285849  0.67424823     0.88200
O1296       O  0.81805141  0.88135100  0.63025338    -0.53700
O1297       O  0.79243136  0.91812156  0.66114530    -0.57000
In1298     In  0.81884629  0.96382834  0.05637609     1.36900
C1299       C  0.80803467  0.96005552  0.99718364     0.80700
O1300       O  0.84563088  0.96716483  0.03847578    -0.57800
O1301       O  0.84061551  0.93629458  0.07730726    -0.48700
C1302       C  0.81950390  0.51811637  0.08951194     0.73300
O1303       O  0.82154718  0.51752366  0.06004139    -0.43500
C1304       C  0.79498209  0.92558949  0.07927535     0.78100
O1305       O  0.80523436  0.98419205  0.01426969    -0.55400
O1306       O  0.81024458  0.91702532  0.07684940    -0.45500
O1307       O  0.81685163  0.93841906  0.00980351    -0.51800
C1308       C  0.85137803  0.94744558  0.05829312     0.88200
O1309       O  0.81714309  0.99114268  0.10209891    -0.53700
O1310       O  0.79192072  0.95400762  0.07095662    -0.57000
In1311     In  0.76275887  0.93549973  0.86598967     1.36900
C1312       C  0.74088090  0.98206533  0.85389235     0.80700
O1313       O  0.77518313  0.95028155  0.82070772    -0.57800
O1314       O  0.78202701  0.90526948  0.84046340    -0.48700
C1315       C  0.78331254  0.94609644  0.91444504     0.73300
O1316       O  0.78140540  0.96617087  0.89253282    -0.43500
C1317       C  0.74061731  0.88918618  0.87754007     0.78100
O1318       O  0.75070273  0.98294667  0.87731156    -0.55400
O1319       O  0.75023050  0.88868975  0.85381435    -0.45500
O1320       O  0.74232873  0.95773059  0.83654141    -0.51800
C1321       C  0.78379667  0.92502437  0.81823798     0.88200
O1322       O  0.77508455  0.92043361  0.91131060    -0.53700
O1323       O  0.74243305  0.91297143  0.89551151    -0.57000
In1324     In  0.68418205  0.84044797  0.30677933     1.36900
C1325       C  0.70716947  0.80016034  0.32935065     0.80700
O1326       O  0.66209160  0.81528584  0.32918620    -0.57800
O1327       O  0.65779900  0.84152512  0.28686189    -0.48700
C1328       C  0.68316410  0.89468690  0.33985725     0.73300
O1329       O  0.68589833  0.86782852  0.35241200    -0.43500
C1330       C  0.69597761  0.83836304  0.24811661     0.78100
O1331       O  0.71053104  0.82911302  0.32363818    -0.55400
O1332       O  0.68636693  0.81710516  0.25927814    -0.45500
O1333       O  0.69201035  0.79202012  0.32453853    -0.51800
C1334       C  0.65170677  0.82410757  0.30834726     0.88200
O1335       O  0.68091195  0.89401576  0.31043145    -0.53700
O1336       O  0.69907802  0.86148218  0.26638515    -0.57000
In1337     In  0.68307528  0.78118339  0.92447958     1.36900
C1338       C  0.70553651  0.82206372  0.90112697     0.80700
O1339       O  0.66079740  0.80669625  0.90288774    -0.57800
O1340       O  0.65679047  0.77996719  0.94497569    -0.48700
C1341       C  0.68201949  0.72666136  0.89164855     0.73300
O1342       O  0.68468368  0.75347465  0.87892268    -0.43500
C1343       C  0.69562868  0.78248513  0.98275545     0.78100
O1344       O  0.70899118  0.79297471  0.90580140    -0.55400
O1345       O  0.68565296  0.80358497  0.97247751    -0.45500
O1346       O  0.69052628  0.83011235  0.90740014    -0.51800
C1347       C  0.65056214  0.79780227  0.92395887     0.88200
O1348       O  0.67974692  0.72756404  0.92106008    -0.53700
O1349       O  0.69880825  0.76005598  0.96375420    -0.57000
In1350     In  0.73986778  0.80890302  0.11566870     1.36900
C1351       C  0.76027819  0.85820568  0.10400970     0.80700
O1352       O  0.75744346  0.78160538  0.14747824    -0.57800
O1353       O  0.75206022  0.76185856  0.10236139    -0.48700
C1354       C  0.72050972  0.82313896  0.16515077     0.73300
O1355       O  0.72711086  0.84437302  0.14798361    -0.43500
C1356       C  0.72092246  0.79543167  0.06536783     0.78100
O1357       O  0.74479871  0.85854464  0.09665152    -0.55400
O1358       O  0.73610158  0.80450146  0.06336112    -0.45500
O1359       O  0.76525982  0.83307261  0.11753147    -0.51800
C1360       C  0.76003958  0.75937583  0.12799023     0.88200
O1361       O  0.72344271  0.79471520  0.15676068    -0.53700
O1362       O  0.71528793  0.79302281  0.09308747    -0.57000
In1363     In  0.81952500  0.65507905  0.17441229     1.36900
C1364       C  0.80909644  0.65918195  0.23397619     0.80700
O1365       O  0.84627396  0.65219365  0.19257778    -0.57800
O1366       O  0.84133006  0.68226340  0.15314276    -0.48700
C1367       C  0.81988428  0.60097624  0.14089218     0.73300
O1368       O  0.82136160  0.60124813  0.17048853    -0.43500
C1369       C  0.79538059  0.69276107  0.15161116     0.78100
O1370       O  0.80714162  0.63414313  0.21772489    -0.55400
O1371       O  0.81057946  0.70171122  0.15407853    -0.45500
O1372       O  0.81683493  0.68161751  0.22028680    -0.51800
C1373       C  0.85203871  0.67161187  0.17250897     0.88200
O1374       O  0.81828724  0.62817309  0.12836119    -0.53700
O1375       O  0.79252118  0.66424394  0.15988110    -0.57000
In1376     In  0.81819771  0.71756347  0.55740310     1.36900
C1377       C  0.80786551  0.71320482  0.49778825     0.80700
O1378       O  0.84508991  0.72147533  0.54013089    -0.57800
O1379       O  0.83991994  0.68974510  0.57818408    -0.48700
C1380       C  0.81879499  0.77161864  0.59077131     0.73300
O1381       O  0.81987915  0.77137282  0.56110907    -0.43500
C1382       C  0.79401215  0.68013472  0.58052427     0.78100
O1383       O  0.80552834  0.73804552  0.51414447    -0.55400
O1384       O  0.80907757  0.67079327  0.57701394    -0.45500
O1385       O  0.81590976  0.69113253  0.51140785    -0.51800
C1386       C  0.85075515  0.70128393  0.55955588     0.88200
O1387       O  0.81742461  0.74442367  0.60341736    -0.53700
O1388       O  0.79129739  0.70896555  0.57318473    -0.57000
In1389     In  0.76400407  0.68588004  0.36519689     1.36900
C1390       C  0.74196393  0.63924627  0.37693492     0.80700
O1391       O  0.77596881  0.67204603  0.41130729    -0.57800
O1392       O  0.78274327  0.71697832  0.39128359    -0.48700
C1393       C  0.78486568  0.67429699  0.31715726     0.73300
O1394       O  0.78383312  0.65583458  0.34060381    -0.43500
C1395       C  0.74220209  0.73280099  0.35294772     0.78100
O1396       O  0.75161568  0.63877702  0.35328312    -0.55400
O1397       O  0.75212822  0.73369487  0.37620201    -0.45500
O1398       O  0.74369626  0.66313509  0.39478272    -0.51800
C1399       C  0.78428252  0.69767395  0.41397757     0.88200
O1400       O  0.77574998  0.69899700  0.31870521    -0.53700
O1401       O  0.74348839  0.70826684  0.33583522    -0.57000
In1402     In  0.68323841  0.58963729  0.80686764     1.36900
C1403       C  0.70591447  0.54914529  0.82983102     0.80700
O1404       O  0.66132461  0.56290915  0.82788045    -0.57800
O1405       O  0.65673460  0.59248468  0.78780711    -0.48700
C1406       C  0.68218550  0.64356754  0.84055878     0.73300
O1407       O  0.68502354  0.61659779  0.85281928    -0.43500
C1408       C  0.69538983  0.58758187  0.74841254     0.78100
O1409       O  0.70934592  0.57815201  0.82456179    -0.55400
O1410       O  0.68516769  0.56701323  0.75889282    -0.45500
O1411       O  0.69082684  0.54099414  0.82429621    -0.51800
C1412       C  0.65080174  0.57340577  0.80805688     0.88200
O1413       O  0.67982427  0.64312794  0.81115628    -0.53700
O1414       O  0.69888119  0.61004562  0.76719086    -0.57000
In1415     In  0.68396928  0.53204270  0.42374690     1.36900
C1416       C  0.70669437  0.57232997  0.40031527     0.80700
O1417       O  0.66151805  0.55668992  0.40196617    -0.57800
O1418       O  0.65772847  0.53040031  0.44439707    -0.48700
C1419       C  0.68309440  0.97768654  0.39085796     0.73300
O1420       O  0.68543145  0.00459553  0.37812544    -0.43500
C1421       C  0.69614912  0.53442061  0.48217534     0.78100
O1422       O  0.71010658  0.54338632  0.40591915    -0.55400
O1423       O  0.68662802  0.55582829  0.47102101    -0.45500
O1424       O  0.69158778  0.58048580  0.40563978    -0.51800
C1425       C  0.65135661  0.54771642  0.42311730     0.88200
O1426       O  0.68116290  0.97837112  0.42036171    -0.53700
O1427       O  0.69904415  0.51116789  0.46397015    -0.57000
In1428     In  0.73979017  0.56179985  0.61555704     1.36900
C1429       C  0.76070287  0.51336140  0.62748993     0.80700
O1430       O  0.75776153  0.58935892  0.58480511    -0.57800
O1431       O  0.75068818  0.60999585  0.62872790    -0.48700
C1432       C  0.72065314  0.54831362  0.56548964     0.73300
O1433       O  0.72753630  0.52680969  0.58193379    -0.43500
C1434       C  0.72077606  0.57373946  0.66607927     0.78100
O1435       O  0.74504391  0.51178996  0.63324698    -0.55400
O1436       O  0.73594465  0.56459232  0.66798895    -0.45500
O1437       O  0.76560277  0.53921954  0.61522163    -0.51800
C1438       C  0.75931242  0.61235832  0.60382156     0.88200
O1439       O  0.72323861  0.57652375  0.57484075    -0.53700
O1440       O  0.71517741  0.57672577  0.63840546    -0.57000
C1441       C  0.70371712  0.53714264  0.51288338    -0.10200
C1442       C  0.71099253  0.54139306  0.53757650    -0.11700
C1443       C  0.70315391  0.58462119  0.71792219    -0.10200
C1444       C  0.71071880  0.58024176  0.69357243    -0.11700
C1445       C  0.71925645  0.59474900  0.38983353    -0.10200
C1446       C  0.72977228  0.61455801  0.38313470    -0.11700
C1447       C  0.78085346  0.65888954  0.59096253    -0.10200
C1448       C  0.77051123  0.63874245  0.59771172    -0.11700
C1449       C  0.80114563  0.70954770  0.46648341    -0.10200
C1450       C  0.79418943  0.70472131  0.44156861    -0.11700
C1451       C  0.80224885  0.66264339  0.26521169    -0.10200
C1452       C  0.79509423  0.66731331  0.28996035    -0.11700
C1453       C  0.78222303  0.71402919  0.14122571    -0.10200
C1454       C  0.77166961  0.73374064  0.13437658    -0.11700
C1455       C  0.68180576  0.67269806  0.85875209    -0.10200
C1456       C  0.68174572  0.69723307  0.87391083    -0.11700
C1457       C  0.70338375  0.78473840  0.01335043    -0.10200
C1458       C  0.71087282  0.78872951  0.03787001    -0.11700
C1459       C  0.68277632  0.94839586  0.37300051    -0.10200
C1460       C  0.68279027  0.92391955  0.35780428    -0.11700
C1461       C  0.71979213  0.77771781  0.33956741    -0.10200
C1462       C  0.73020562  0.75774580  0.34637601    -0.11700
C1463       C  0.70350326  0.83544791  0.21740479    -0.10200
C1464       C  0.71078997  0.83065940  0.19282816    -0.11700
C1465       C  0.72882711  0.00683718  0.84735431    -0.10200
C1466       C  0.71841283  0.52669347  0.84037324    -0.11700
C1467       C  0.71795411  0.84469907  0.89055943    -0.10200
C1468       C  0.72840828  0.86456893  0.88375608    -0.11700
C1469       C  0.81979758  0.54737238  0.10747877    -0.10200
C1470       C  0.81992152  0.57182210  0.12274846    -0.11700
C1471       C  0.77161543  0.88408413  0.09687213    -0.10200
C1472       C  0.78198086  0.90403627  0.08973613    -0.11700
C1473       C  0.79359346  0.95231873  0.94165827    -0.10200
C1474       C  0.80094634  0.95664460  0.96621429    -0.11700
C1475       C  0.81918649  0.82504162  0.62435609    -0.10200
C1476       C  0.81905417  0.80073601  0.60890241    -0.11700
C1477       C  0.78270701  0.96838358  0.64281763    -0.10200
C1478       C  0.77229334  0.98803028  0.63513084    -0.11700
C1479       C  0.79431691  0.91887186  0.79135302    -0.10200
C1480       C  0.80173809  0.91466120  0.76686362    -0.11700
C1481       C  0.88287500  0.68339221  0.55993473    -0.10200
C1482       C  0.86823630  0.69173547  0.56008941    -0.11700
C1483       C  0.95040670  0.66442880  0.46700023    -0.10200
C1484       C  0.95777754  0.66858722  0.44241008    -0.11700
C1485       C  0.86949630  0.68122542  0.17202280    -0.10200
C1486       C  0.88414524  0.68944590  0.17230422    -0.11700
C1487       C  0.95826886  0.70149783  0.29188737    -0.10200
C1488       C  0.95111761  0.70603074  0.26712580    -0.11700
C1489       C  0.98056633  0.73461423  0.60048358    -0.10200
C1490       C  0.97001280  0.71508448  0.59311812    -0.11700
C1491       C  0.03346783  0.77695765  0.39365202    -0.10200
C1492       C  0.02315676  0.75684429  0.38666385    -0.11700
C1493       C  0.04205225  0.83161470  0.54076292    -0.10200
C1494       C  0.04928964  0.83626434  0.51611658    -0.11700
C1495       C  0.04974091  0.78503731  0.71888613    -0.10200
C1496       C  0.04228944  0.78911684  0.69439165    -0.11700
C1497       C  0.03355286  0.84454023  0.84149498    -0.10200
C1498       C  0.02311323  0.86441663  0.84844879    -0.11700
C1499       C  0.93216664  0.57310158  0.60807950    -0.10200
C1500       C  0.93248271  0.54859403  0.62325519    -0.11700
C1501       C  0.88410348  0.93962824  0.67322164    -0.10200
C1502       C  0.86941213  0.93168768  0.67347292    -0.11700
C1503       C  0.97074871  0.90535807  0.64115705    -0.10200
C1504       C  0.98101587  0.88516977  0.63418203    -0.11700
C1505       C  0.95152663  0.95796459  0.76573449    -0.10200
C1506       C  0.95869773  0.95358300  0.79053761    -0.11700
C1507       C  0.93282004  0.82307214  0.11033352    -0.10200
C1508       C  0.93290212  0.79861103  0.12557918    -0.11700
C1509       C  0.88361911  0.93035190  0.05931526    -0.10200
C1510       C  0.86889981  0.93817205  0.05900675    -0.11700
C1511       C  0.95198157  0.91392468  0.96867926    -0.10200
C1512       C  0.95912047  0.91854565  0.94391843    -0.11700
C1513       C  0.97111223  0.65661721  0.14103621    -0.10200
C1514       C  0.98152904  0.63696276  0.13345555    -0.11700
C1515       C  0.98080887  0.98652182  0.10027275    -0.10200
C1516       C  0.97037745  0.96655067  0.09344046    -0.11700
C1517       C  0.06986225  0.92383229  0.37506227    -0.10200
C1518       C  0.07002930  0.94821094  0.35972642    -0.11700
C1519       C  0.02391300  0.61474537  0.34956673    -0.10200
C1520       C  0.03427698  0.59485748  0.34245449    -0.11700
C1521       C  0.04206436  0.53989205  0.19452458    -0.10200
C1522       C  0.04940330  0.53551873  0.21909647    -0.11700
C1523       C  0.07002505  0.67407503  0.87512208    -0.10200
C1524       C  0.07004319  0.69848587  0.85985661    -0.11700
C1525       C  0.03290961  0.52883753  0.89305724    -0.10200
C1526       C  0.02255467  0.00884715  0.88592426    -0.11700
C1527       C  0.04322052  0.58196794  0.04103531    -0.10200
C1528       C  0.05044448  0.58622712  0.01632780    -0.11700
C1529       C  0.61916748  0.56505176  0.42339764    -0.10200
C1530       C  0.63383056  0.55690761  0.42314894    -0.11700
C1531       C  0.54330558  0.58210481  0.54046326    -0.10200
C1532       C  0.55057062  0.58632262  0.51579055    -0.11700
C1533       C  0.61869488  0.55589279  0.80854279    -0.10200
C1534       C  0.63333709  0.56403961  0.80838475    -0.11700
C1535       C  0.54209477  0.53999524  0.69367836    -0.10200
C1536       C  0.54940136  0.53550508  0.71826425    -0.11700
C1537       C  0.53323991  0.52901257  0.39293418    -0.10200
C1538       C  0.52290509  0.00892764  0.38596102    -0.11700
C1539       C  0.46989716  0.96770556  0.59344404    -0.10200
C1540       C  0.48035887  0.98763323  0.60023477    -0.11700
C1541       C  0.45235240  0.91405135  0.46895989    -0.10200
C1542       C  0.45961589  0.91854344  0.44431189    -0.11700
C1543       C  0.45198762  0.95781436  0.26609111    -0.10200
C1544       C  0.45924790  0.95337789  0.29079607    -0.11700
C1545       C  0.52365485  0.61367335  0.84941273    -0.10200
C1546       C  0.53396732  0.59376970  0.84213317    -0.11700
C1547       C  0.43259251  0.54850561  0.12390271    -0.10200
C1548       C  0.43234513  0.57296210  0.10862504    -0.11700
C1549       C  0.45046783  0.66392292  0.96698403    -0.10200
C1550       C  0.45779515  0.66807128  0.94234041    -0.11700
C1551       C  0.43277619  0.79894046  0.62507232    -0.10200
C1552       C  0.43267096  0.82338166  0.60978943    -0.11700
C1553       C  0.48169524  0.63790210  0.63275913    -0.10200
C1554       C  0.47124156  0.65748795  0.64035438    -0.11700
C1555       C  0.45159245  0.70597428  0.76655257    -0.10200
C1556       C  0.45869890  0.70124941  0.79132461    -0.11700
C1557       C  0.48082968  0.73430211  0.10027474    -0.10200
C1558       C  0.47026369  0.71478970  0.09292426    -0.11700
C1559       C  0.48088404  0.88458551  0.13466429    -0.10200
C1560       C  0.47059682  0.90473314  0.14167196    -0.11700
C1561       C  0.57059357  0.69919172  0.36040400    -0.10200
C1562       C  0.57052864  0.67473943  0.37560137    -0.11700
C1563       C  0.63421671  0.81478467  0.30892734    -0.10200
C1564       C  0.61953030  0.80684287  0.30918362    -0.11700
C1565       C  0.53374796  0.84392695  0.34211030    -0.10200
C1566       C  0.52329220  0.86374245  0.34909065    -0.11700
C1567       C  0.54994053  0.78536708  0.21925409    -0.10200
C1568       C  0.54240462  0.78932324  0.19482053    -0.11700
C1569       C  0.56972297  0.94765813  0.85908503    -0.10200
C1570       C  0.56953562  0.92334714  0.87452268    -0.11700
C1571       C  0.63310177  0.80754321  0.92417996    -0.10200
C1572       C  0.61843864  0.81574584  0.92459007    -0.11700
C1573       C  0.53322066  0.77672153  0.89352030    -0.10200
C1574       C  0.52301587  0.75644927  0.88647247    -0.11700
C1575       C  0.54931661  0.83618174  0.01628856    -0.10200
C1576       C  0.54215415  0.83160076  0.04102894    -0.11700
C1577       C  0.11891118  0.55625241  0.30919295    -0.10200
C1578       C  0.13354895  0.56440699  0.30903303    -0.11700
C1579       C  0.21078435  0.58079299  0.19400725    -0.10200
C1580       C  0.20324649  0.58544360  0.21834109    -0.11700
C1581       C  0.11887004  0.56536690  0.92388734    -0.10200
C1582       C  0.13354466  0.55729771  0.92370275    -0.11700
C1583       C  0.21074410  0.54030627  0.03838952    -0.10200
C1584       C  0.20343166  0.53612317  0.01371568    -0.11700
C1585       C  0.22910155  0.00703964  0.34712420    -0.10200
C1586       C  0.21865589  0.52685932  0.34018084    -0.11700
C1587       C  0.36880339  0.93953763  0.55941326    -0.10200
C1588       C  0.38349545  0.93151605  0.55957121    -0.11700
C1589       C  0.30069390  0.95805942  0.46712677    -0.10200
C1590       C  0.29340116  0.95362168  0.44252426    -0.11700
C1591       C  0.36946804  0.93123234  0.17404739    -0.10200
C1592       C  0.38416199  0.93919507  0.17390644    -0.11700
C1593       C  0.28261269  0.96742251  0.14256815    -0.10200
C1594       C  0.27215691  0.98708783  0.13514795    -0.11700
C1595       C  0.30170470  0.91460077  0.26679919    -0.10200
C1596       C  0.29432518  0.91879243  0.29134153    -0.11700
C1597       C  0.27164275  0.88517935  0.59784282    -0.10200
C1598       C  0.28196385  0.90520967  0.59071513    -0.11700
C1599       C  0.18202527  0.69758484  0.37458494    -0.10200
C1600       C  0.18207736  0.67304904  0.35943084    -0.11700
C1601       C  0.13349339  0.80805561  0.42475043    -0.10200
C1602       C  0.11880753  0.81616156  0.42507235    -0.11700
C1603       C  0.22916621  0.86419886  0.38433062    -0.10200
C1604       C  0.21869757  0.84437090  0.39114560    -0.11700
C1605       C  0.20358163  0.78563048  0.51406789    -0.10200
C1606       C  0.21103219  0.78977280  0.53860471    -0.11700
C1607       C  0.18199040  0.92365375  0.85853518    -0.10200
C1608       C  0.18200660  0.94812375  0.87376230    -0.11700
C1609       C  0.13373054  0.81412502  0.80933488    -0.10200
C1610       C  0.11904866  0.80613380  0.80954288    -0.11700
C1611       C  0.20354070  0.83635086  0.71830291    -0.10200
C1612       C  0.21090103  0.83171081  0.69376555    -0.11700
C1613       C  0.22943385  0.75699426  0.84707614    -0.10200
C1614       C  0.21904348  0.77700492  0.84022769    -0.11700
C1615       C  0.21896912  0.59452044  0.89115962    -0.10200
C1616       C  0.22947378  0.61433311  0.88442802    -0.11700
C1617       C  0.31909028  0.79971443  0.10943080    -0.10200
C1618       C  0.31918383  0.82409041  0.12479990    -0.11700
C1619       C  0.38299712  0.68275890  0.05994713    -0.10200
C1620       C  0.36835176  0.69109614  0.06005051    -0.11700
C1621       C  0.27086837  0.63723528  0.09770065    -0.10200
C1622       C  0.28122952  0.65729406  0.09081547    -0.11700
C1623       C  0.29405086  0.70478933  0.94180718    -0.10200
C1624       C  0.30108946  0.70962232  0.96662236    -0.11700
C1625       C  0.31976398  0.57277361  0.62398970    -0.10200
C1626       C  0.31962770  0.54840127  0.60862291    -0.11700
C1627       C  0.36945730  0.68175680  0.67346228    -0.10200
C1628       C  0.38413134  0.68988248  0.67351804    -0.11700
C1629       C  0.28217564  0.71497796  0.64255194    -0.10200
C1630       C  0.27165853  0.73472461  0.63561342    -0.11700
C1631       C  0.30217225  0.66355491  0.76645179    -0.10200
C1632       C  0.29493786  0.66807628  0.79112164    -0.11700
loop_ 
_geom_bond_atom_site_label_1 
_geom_bond_atom_site_label_2 
_geom_bond_distance 
_geom_bond_site_symmetry_2 
_ccdc_geom_bond_type 
In1           O3   2.249       .  S
In1           O4   2.247       .  S
In1          O12   2.251       .  S
In1           O6   2.255       .  S
In1           O8   2.251       .  S
In1           O9   2.240       .  S
In1          O10   2.246       .  S
In1          O13   2.249       .  S
C2            O8   1.260       .  A
C2           O10   1.258       .  A
C2          C815   1.435       .  S
O3           C11   1.259       .  A
O4           C11   1.258       .  A
C5           O12   1.258       .  A
C5            O6   1.259       .  A
C5          C809   1.437       .  S
C7            O9   1.259       .  A
C7           O13   1.259       .  A
C7          C813   1.434       .  S
C11         C811   1.435       .  S
In14         O16   2.249       .  S
In14         O17   2.247       .  S
In14         O25   2.251       .  S
In14         O19   2.253       .  S
In14         O21   2.254       .  S
In14         O22   2.240       .  S
In14         O23   2.246       .  S
In14         O26   2.252       .  S
C15          O21   1.259   1_556  A
C15          O23   1.257   1_556  A
C15         C808   1.435       .  S
O16          C24   1.259       .  A
O17          C24   1.259       .  A
C18          O25   1.259       .  A
C18          O19   1.259       .  A
C18         C801   1.438       .  S
C20          O22   1.258       .  A
C20          O26   1.259       .  A
C20         C806   1.433       .  S
C24         C804   1.435       .  S
In27         O29   2.242       .  S
In27         O30   2.256       .  S
In27         O38   2.243       .  S
In27         O32   2.252       .  S
In27         O34   2.250       .  S
In27         O35   2.250       .  S
In27         O36   2.244       .  S
In27         O39   2.242       .  S
C28          O34   1.258       .  A
C28          O36   1.258       .  A
C28         C797   1.433       .  S
O29          C37   1.258       .  A
O30          C37   1.259       .  A
C31          O38   1.258       .  A
C31          O32   1.259       .  A
C31         C807   1.435       .  S
C33          O35   1.258       .  A
C33          O39   1.258       .  A
C33         C800   1.432       .  S
C37         C816   1.435       .  S
In40         O42   2.244       .  S
In40         O43   2.246       .  S
In40         O51   2.255       .  S
In40         O45   2.250       .  S
In40         O47   2.248       .  S
In40         O48   2.243       .  S
In40         O49   2.242       .  S
In40         O52   2.255       .  S
C41          O47   1.259       .  A
C41          O49   1.259       .  A
C41         C798   1.433       .  S
O42          C50   1.259       .  A
O43          C50   1.259       .  A
C44          O51   1.260       .  A
C44          O45   1.258       .  A
C44         C791   1.438       .  S
C46          O48   1.258       .  A
C46          O52   1.260       .  A
C46         C795   1.436       .  S
C50         C793   1.433       .  S
In53         O55   2.248       .  S
In53         O56   2.248       .  S
In53         O64   2.255       .  S
In53         O58   2.253       .  S
In53         O60   2.245       .  S
In53         O61   2.247       .  S
In53         O62   2.242       .  S
In53         O65   2.253       .  S
C54          O60   1.258       .  A
C54          O62   1.258       .  A
C54         C788   1.431       .  S
O55          C63   1.259       .  A
O56          C63   1.260       .  A
C57          O64   1.259       .  A
C57          O58   1.258       .  A
C57         C783   1.439       .  S
C59          O61   1.258       .  A
C59          O65   1.259       .  A
C59         C789   1.436       .  S
C63         C785   1.436       .  S
In66         O68   2.243       .  S
In66         O69   2.256       .  S
In66         O77   2.249       .  S
In66         O71   2.253       .  S
In66         O73   2.253       .  S
In66         O74   2.244       .  S
In66         O75   2.242       .  S
In66         O78   2.260       .  S
C67          O73   1.260       .  A
C67          O75   1.257       .  A
C67         C781   1.433       .  S
O68          C76   1.258       .  A
O69          C76   1.259       .  A
C70          O77   1.259       .  A
C70          O71   1.258       .  A
C70         C796   1.436       .  S
C72          O74   1.257       .  A
C72          O78   1.259       .  A
C72         C790   1.436       .  S
C76         C814   1.434       .  S
In79         O81   2.249       .  S
In79         O82   2.244       .  S
In79         O90   2.250       .  S
In79         O84   2.253       .  S
In79         O86   2.246       .  S
In79         O87   2.242       .  S
In79         O88   2.247       .  S
In79         O91   2.247       .  S
C80          O86   1.259       .  A
C80          O88   1.258       .  A
C80         C779   1.433       .  S
O81          C89   1.259       .  A
O82          C89   1.258       .  A
C83          O90   1.258       .  A
C83          O84   1.259       .  A
C83         C802   1.438       .  S
C85          O87   1.259       .  A
C85          O91   1.259       .  A
C85         C777   1.433       .  S
C89         C775   1.434       .  S
In92         O94   2.249       .  S
In92         O95   2.247       .  S
In92        O103   2.250       .  S
In92         O99   2.249       .  S
In92        O100   2.239       .  S
In92        O101   2.244       .  S
In92        O104   2.248       .  S
In92        O913   2.253       .  S
C93          O99   1.259       .  A
C93         O101   1.258       .  A
C93         C773   1.433       .  S
O94         C102   1.259       .  A
O95         C102   1.258       .  A
C96          O97   1.259       .  A
C96         O919   1.258   1_545  A
C96         C810   1.437       .  S
O97        In908   2.253   1_545  S
C98         O100   1.259       .  A
C98         O104   1.259       .  A
C98         C782   1.433       .  S
C102        C771   1.435       .  S
O103        C912   1.258       .  A
In105       O107   2.241       .  S
In105       O108   2.251       .  S
In105       O116   2.239       .  S
In105       O110   2.253       .  S
In105       O112   2.247       .  S
In105       O113   2.248       .  S
In105       O114   2.237       .  S
In105       O117   2.239       .  S
C106        O112   1.259       .  A
C106        O114   1.259       .  A
C106        C787   1.431       .  S
O107        C115   1.258       .  A
O108        C115   1.259       .  A
C109        O116   1.257       .  A
C109        O110   1.259       .  A
C109        C780   1.432       .  S
C111        O113   1.259       .  A
C111        O117   1.258       .  A
C111        C769   1.431       .  S
C115        C774   1.433       .  S
In118       O120   2.245       .  S
In118       O121   2.246       .  S
In118       O125   2.245       .  S
In118       O126   2.245       .  S
In118       O127   2.242       .  S
In118       O130   2.252       .  S
In118       O945   2.254   1_545  S
In118       O939   2.250       .  S
C119        O125   1.259       .  A
C119        O127   1.259       .  A
C119        C799   1.432       .  S
O120        C128   1.259       .  A
O121        C128   1.259       .  A
C122        O129   1.259       .  A
C122        O123   1.258       .  A
C122        C792   1.438       .  S
O123       In934   2.250       .  S
C124        O126   1.258       .  A
C124        O130   1.260       .  A
C124        C768   1.436   1_556  S
C128        C766   1.434       .  S
O129       In934   2.254       .  S
In131       O133   2.240       .  S
In131       O134   2.242       .  S
In131       O142   2.253       .  S
In131       O136   2.253       .  S
In131       O138   2.242       .  S
In131       O139   2.245       .  S
In131       O140   2.241       .  S
In131       O143   2.252       .  S
C132        O138   1.259       .  A
C132        O140   1.259       .  A
C132        C770   1.431       .  S
O133        C141   1.259       .  A
O134        C141   1.259       .  A
C135        O142   1.259       .  A
C135        O136   1.258       .  A
C135        C784   1.439       .  S
C137        O139   1.257       .  A
C137        O143   1.260       .  A
C137        C764   1.435       .  S
C141        C762   1.431       .  S
In144       O146   2.241       .  S
In144       O147   2.255       .  S
In144       O155   2.248       .  S
In144       O149   2.258       .  S
In144       O151   2.254       .  S
In144       O152   2.246       .  S
In144       O153   2.240       .  S
In144       O156   2.257       .  S
C145        O151   1.260       .  A
C145        O153   1.257       .  A
C145       C1594   1.433   1_545  S
O146        C154   1.258       .  A
O147        C154   1.259       .  A
C148        O155   1.258       .  A
C148        O149   1.258       .  A
C148        C767   1.436       .  S
C150        O152   1.258       .  A
C150        O156   1.258       .  A
C150        C763   1.435       .  S
C154        C805   1.433       .  S
In157       O159   2.244       .  S
In157       O160   2.249       .  S
In157       O168   2.252       .  S
In157       O162   2.250       .  S
In157       O164   2.249       .  S
In157       O165   2.243       .  S
In157       O166   2.241       .  S
In157       O169   2.253       .  S
C158        O164   1.259       .  A
C158        O166   1.259       .  A
C158        C757   1.433       .  S
O159        C167   1.259       .  A
O160        C167   1.260       .  A
C161        O168   1.259       .  A
C161        O162   1.258       .  A
C161        C754   1.436       .  S
C163        O165   1.258       .  A
C163        O169   1.260       .  A
C163        C759   1.435   1_556  S
C167        C756   1.435       .  S
In170       O172   2.244       .  S
In170       O173   2.245       .  S
In170       O181   2.248       .  S
In170       O175   2.247       .  S
In170       O177   2.246       .  S
In170       O178   2.243       .  S
In170       O179   2.241       .  S
In170       O182   2.248       .  S
C171        O177   1.259       .  A
C171        O179   1.259       .  A
C171        C749   1.432       .  S
O172        C180   1.258       .  A
O173        C180   1.259       .  A
C174        O181   1.259       .  A
C174        O175   1.258       .  A
C174        C745   1.435       .  S
C176        O178   1.258       .  A
C176        O182   1.259       .  A
C176        C751   1.433       .  S
C180        C748   1.433       .  S
In183       O185   2.241       .  S
In183       O186   2.259       .  S
In183       O194   2.247       .  S
In183       O188   2.253       .  S
In183       O190   2.252       .  S
In183       O191   2.241       .  S
In183       O192   2.244       .  S
In183       O195   2.258       .  S
C184        O190   1.260       .  A
C184        O192   1.258       .  A
C184        C743   1.434       .  S
O185        C193   1.258       .  A
O186        C193   1.259       .  A
C187        O194   1.258       .  A
C187        O188   1.258       .  A
C187        C760   1.435       .  S
C189        O191   1.257       .  A
C189        O195   1.259       .  A
C189        C752   1.433       .  S
C193        C741   1.434       .  S
In196       O198   2.247       .  S
In196       O199   2.244       .  S
In196       O207   2.249       .  S
In196       O201   2.254       .  S
In196       O203   2.251       .  S
In196       O204   2.240       .  S
In196       O205   2.249       .  S
In196       O208   2.248       .  S
C197        O203   1.259       .  A
C197        O205   1.258       .  A
C197        C739   1.435       .  S
O198        C206   1.260       .  A
O199        C206   1.259       .  A
C200        O207   1.258       .  A
C200        O201   1.259       .  A
C200        C735   1.437       .  S
C202        O204   1.259       .  A
C202        O208   1.259       .  A
C202        C738   1.433       .  S
C206        C812   1.434       .  S
In209       O211   2.252       .  S
In209       O212   2.246       .  S
In209       O220   2.251       .  S
In209       O214   2.255       .  S
In209       O216   2.251       .  S
In209       O217   2.243       .  S
In209       O218   2.249       .  S
In209       O221   2.253       .  S
C210        O216   1.259   1_556  A
C210        O218   1.258   1_556  A
C210        C733   1.435       .  S
O211        C219   1.259       .  A
O212        C219   1.258       .  A
C213        O220   1.258       .  A
C213        O214   1.259       .  A
C213        C732   1.438       .  S
C215        O217   1.258       .  A
C215        O221   1.259       .  A
C215        C742   1.434       .  S
C219        C803   1.435       .  S
In222       O224   2.245       .  S
In222       O225   2.250       .  S
In222       O233   2.242       .  S
In222       O227   2.254       .  S
In222       O229   2.248       .  S
In222       O230   2.248       .  S
In222       O231   2.238       .  S
In222       O234   2.242       .  S
C223        O229   1.258       .  A
C223        O231   1.258       .  A
C223        C729   1.429       .  S
O224        C232   1.258       .  A
O225        C232   1.259       .  A
C226        O233   1.258       .  A
C226        O227   1.259       .  A
C226        C734   1.435       .  S
C228        O230   1.259       .  A
C228        O234   1.259       .  A
C228        C758   1.433       .  S
C232        C740   1.435       .  S
In235       O237   2.247       .  S
In235       O238   2.245       .  S
In235       O246   2.254       .  S
In235       O242   2.253       .  S
In235       O243   2.241       .  S
In235       O244   2.250       .  S
In235       O247   2.251       .  S
In235      O1056   2.256       .  S
C236        O242   1.260       .  A
C236        O244   1.258       .  A
C236        C727   1.437       .  S
O237        C245   1.259       .  A
O238        C245   1.258       .  A
C239        O240   1.259       .  A
C239       O1062   1.258   1_545  A
C239        C731   1.439       .  S
O240      In1051   2.256   1_545  S
C241        O243   1.259       .  A
C241        O247   1.260       .  A
C241        C744   1.434       .  S
C245        C776   1.434       .  S
O246       C1055   1.258       .  A
In248       O250   2.250       .  S
In248       O251   2.245       .  S
In248       O259   2.249       .  S
In248       O253   2.254       .  S
In248       O255   2.252       .  S
In248       O256   2.243       .  S
In248       O257   2.245       .  S
In248       O260   2.252       .  S
C249        O255   1.260       .  A
C249        O257   1.258       .  A
C249        C725   1.435       .  S
O250        C258   1.259       .  A
O251        C258   1.258       .  A
C252        O259   1.258       .  A
C252        O253   1.260       .  A
C252        C736   1.438       .  S
C254        O256   1.258       .  A
C254        O260   1.259       .  A
C254        C723   1.435       .  S
C258        C772   1.435       .  S
In261       O263   2.247       .  S
In261       O264   2.259       .  S
In261       O272   2.245       .  S
In261       O266   2.257       .  S
In261       O268   2.252       .  S
In261       O269   2.253       .  S
In261       O270   2.241       .  S
In261       O273   2.242       .  S
C262        O268   1.259       .  A
C262        O270   1.258       .  A
C262        C750   1.433       .  S
O263        C271   1.258       .  A
O264        C271   1.259       .  A
C265        O272   1.257       .  A
C265        O266   1.258       .  A
C265        C726   1.435       .  S
C267        O269   1.260       .  A
C267        O273   1.259       .  A
C267        C722   1.434       .  S
C271        C728   1.437       .  S
In274       O276   2.239       .  S
In274       O277   2.242       .  S
In274       O281   2.242       .  S
In274       O282   2.243       .  S
In274       O283   2.237       .  S
In274       O286   2.250       .  S
In274      O1101   2.251   1_545  S
In274      O1095   2.247       .  S
C275        O281   1.259       .  A
C275        O283   1.258       .  A
C275        C730   1.429       .  S
O276        C284   1.258       .  A
O277        C284   1.259       .  A
C278        O285   1.259       .  A
C278        O279   1.258       .  A
C278        C753   1.436       .  S
O279      In1090   2.247       .  S
C280        O282   1.258       .  A
C280        O286   1.259       .  A
C280        C720   1.433       .  S
C284        C717   1.431       .  S
O285      In1090   2.251       .  S
In287       O289   2.245       .  S
In287       O290   2.246       .  S
In287       O298   2.251       .  S
In287       O292   2.247       .  S
In287       O294   2.251       .  S
In287       O295   2.242       .  S
In287       O296   2.240       .  S
In287       O299   2.249       .  S
C288        O294   1.259       .  A
C288        O296   1.259       .  A
C288        C721   1.434       .  S
O289        C297   1.259       .  A
O290        C297   1.259       .  A
C291        O298   1.259       .  A
C291        O292   1.258       .  A
C291        C746   1.435       .  S
C293        O295   1.258       .  A
C293        O299   1.259       .  A
C293        C716   1.433       .  S
C297        C713   1.434       .  S
In300       O302   2.244       .  S
In300       O303   2.257       .  S
In300       O311   2.242       .  S
In300       O305   2.253       .  S
In300       O307   2.252       .  S
In300       O308   2.239       .  S
In300       O309   2.242       .  S
In300       O312   2.259       .  S
C301        O307   1.259       .  A
C301        O309   1.257       .  A
C301        C737   1.433       .  S
O302        C310   1.258       .  A
O303        C310   1.258       .  A
C304        O311   1.258       .  A
C304        O305   1.259       .  A
C304        C715   1.433       .  S
C306        O308   1.257       .  A
C306        O312   1.259       .  A
C306        C719   1.433       .  S
C310       C1540   1.435   1_545  S
In313       O315   2.244       .  S
In313       O316   2.246       .  S
In313       O324   2.251       .  S
In313       O318   2.248       .  S
In313       O320   2.250       .  S
In313       O321   2.243       .  S
In313       O322   2.241       .  S
In313       O325   2.249       .  S
C314        O320   1.259       .  A
C314        O322   1.259       .  A
C314        C709   1.434       .  S
O315        C323   1.259       .  A
O316        C323   1.259       .  A
C317        O324   1.259       .  A
C317        O318   1.258       .  A
C317        C707   1.435       .  S
C319        O321   1.258       .  A
C319        O325   1.259       .  A
C319        C712   1.433   1_556  S
C323        C765   1.434       .  S
In326       O328   2.238       .  S
In326       O329   2.242       .  S
In326       O333   2.243       .  S
In326       O334   2.243       .  S
In326       O335   2.238       .  S
In326       O338   2.250       .  S
In326      O1153   2.251   1_545  S
In326      O1147   2.247       .  S
C327        O333   1.259       .  A
C327        O335   1.258       .  A
C327        C704   1.430       .  S
O328        C336   1.258       .  A
O329        C336   1.259       .  A
C330        O337   1.259       .  A
C330        O331   1.258       .  A
C330        C702   1.436       .  S
O331      In1142   2.247       .  S
C332        O334   1.257       .  A
C332        O338   1.259       .  A
C332        C706   1.433       .  S
C336        C761   1.430       .  S
O337      In1142   2.251       .  S
In339       O341   2.244   1_455  S
In339       O342   2.256   1_455  S
In339       O350   2.242       .  S
In339       O344   2.253       .  S
In339       O346   2.251       .  S
In339       O347   2.239       .  S
In339       O348   2.242   1_455  S
In339       O351   2.258       .  S
C340        O346   1.259   1_655  A
C340        O348   1.258       .  A
C340        C698   1.432       .  S
O341        C349   1.258       .  A
O342        C349   1.259       .  A
C343        O350   1.258       .  A
C343        O344   1.259       .  A
C343        C711   1.433       .  S
C345        O347   1.257       .  A
C345        O351   1.259       .  A
C345        C705   1.433       .  S
C349       C1515   1.435   1_545  S
In352       O354   2.249       .  S
In352       O355   2.245       .  S
In352       O363   2.250       .  S
In352       O357   2.253       .  S
In352       O359   2.252       .  S
In352       O360   2.242       .  S
In352       O361   2.245       .  S
In352       O364   2.253       .  S
C353        O359   1.260   1_556  A
C353        O361   1.258   1_556  A
C353        C695   1.435       .  S
O354        C362   1.259       .  A
O355        C362   1.259       .  A
C356        O363   1.259       .  A
C356        O357   1.259       .  A
C356        C691   1.437       .  S
C358        O360   1.258       .  A
C358        O364   1.259       .  A
C358        C700   1.435       .  S
C362        C693   1.435       .  S
In365       O367   2.246       .  S
In365       O368   2.245       .  S
In365       O376   2.253       .  S
In365       O372   2.253       .  S
In365       O373   2.240       .  S
In365       O374   2.250       .  S
In365       O377   2.251       .  S
In365      O1186   2.254       .  S
C366        O372   1.260       .  A
C366        O374   1.258       .  A
C366        C689   1.437       .  S
O367        C375   1.259       .  A
O368        C375   1.258       .  A
C369        O370   1.259       .  A
C369       O1192   1.258   1_545  A
C369        C684   1.438       .  S
O370      In1181   2.254   1_545  S
C371        O373   1.259       .  A
C371        O377   1.260       .  A
C371        C687   1.434       .  S
C375        C685   1.433       .  S
O376       C1185   1.258       .  A
In378       O380   2.246       .  S
In378       O381   2.258       .  S
In378       O389   2.247       .  S
In378       O383   2.259       .  S
In378       O385   2.253   1_655  S
In378       O386   2.253   1_655  S
In378       O387   2.242   1_655  S
In378       O390   2.243   1_655  S
C379        O385   1.260       .  A
C379        O387   1.259       .  A
C379        C710   1.434       .  S
O380        C388   1.257       .  A
O381        C388   1.258       .  A
C382        O389   1.258       .  A
C382        O383   1.259       .  A
C382        C690   1.437       .  S
C384        O386   1.259       .  A
C384        O390   1.258       .  A
C384        C682   1.434       .  S
C388        C696   1.435       .  S
In391       O393   2.243       .  S
In391       O394   2.245       .  S
In391       O402   2.250       .  S
In391       O396   2.247       .  S
In391       O398   2.247       .  S
In391       O399   2.242       .  S
In391       O400   2.243       .  S
In391       O403   2.248       .  S
C392        O398   1.259       .  A
C392        O400   1.259       .  A
C392        C681   1.433       .  S
O393        C401   1.259       .  A
O394        C401   1.259       .  A
C395        O402   1.259       .  A
C395        O396   1.258       .  A
C395        C708   1.435       .  S
C397        O399   1.258       .  A
C397        O403   1.259       .  A
C397        C679   1.433       .  S
C401        C794   1.433       .  S
In404       O406   2.246       .  S
In404       O407   2.250       .  S
In404       O415   2.252       .  S
In404       O409   2.250       .  S
In404       O411   2.248       .  S
In404       O412   2.243       .  S
In404       O413   2.243       .  S
In404       O416   2.252       .  S
C405        O411   1.259       .  A
C405        O413   1.259       .  A
C405        C675   1.434       .  S
O406        C414   1.259       .  A
O407        C414   1.260       .  A
C408        O415   1.259       .  A
C408        O409   1.258       .  A
C408        C701   1.436       .  S
C410        O412   1.258       .  A
C410        O416   1.260       .  A
C410        C678   1.434       .  S
C414        C786   1.436       .  S
In417       O419   2.240   1_455  S
In417       O420   2.259   1_455  S
In417       O428   2.246       .  S
In417       O422   2.253       .  S
In417       O424   2.252       .  S
In417       O425   2.239       .  S
In417       O426   2.243   1_455  S
In417       O429   2.258       .  S
C418        O424   1.260   1_655  A
C418        O426   1.258       .  A
C418        C688   1.434       .  S
O419        C427   1.258       .  A
O420        C427   1.259       .  A
C421        O428   1.259       .  A
C421        O422   1.258       .  A
C421        C677   1.435       .  S
C423        O425   1.257       .  A
C423        O429   1.259       .  A
C423        C680   1.433       .  S
C427        C673   1.434       .  S
In430       O432   2.246       .  S
In430       O433   2.243       .  S
In430       O441   2.249       .  S
In430       O435   2.253       .  S
In430       O437   2.251       .  S
In430       O438   2.239       .  S
In430       O439   2.250       .  S
In430       O442   2.249       .  S
C431        O437   1.259       .  A
C431        O439   1.258       .  A
C431        C672   1.435       .  S
O432        C440   1.260       .  A
O433        C440   1.259       .  A
C434        O441   1.258       .  A
C434        O435   1.259       .  A
C434        C692   1.437       .  S
C436        O438   1.259       .  A
C436        O442   1.259       .  A
C436        C697   1.432       .  S
C440        C670   1.433       .  S
In443       O445   2.251       .  S
In443       O446   2.246       .  S
In443       O454   2.251       .  S
In443       O448   2.255       .  S
In443       O450   2.250       .  S
In443       O451   2.243       .  S
In443       O452   2.248       .  S
In443       O455   2.253       .  S
C444        O450   1.259       .  A
C444        O452   1.258       .  A
C444        C667   1.434       .  S
O445        C453   1.259       .  A
O446        C453   1.258       .  A
C447        O454   1.258       .  A
C447        O448   1.259       .  A
C447        C683   1.438       .  S
C449        O451   1.258       .  A
C449        O455   1.259       .  A
C449        C674   1.434       .  S
C453        C665   1.435       .  S
In456       O458   2.246       .  S
In456       O459   2.251       .  S
In456       O467   2.242       .  S
In456       O461   2.253       .  S
In456       O463   2.249   1_655  S
In456       O464   2.249   1_655  S
In456       O465   2.240   1_655  S
In456       O468   2.242   1_655  S
C457        O463   1.258       .  A
C457        O465   1.258       .  A
C457        C703   1.430       .  S
O458        C466   1.258       .  A
O459        C466   1.258       .  A
C460        O467   1.258       .  A
C460        O461   1.259       .  A
C460        C668   1.434       .  S
C462        O464   1.259       .  A
C462        O468   1.259       .  A
C462        C676   1.434       .  S
C466        C671   1.435       .  S
In469       O471   2.248       .  S
In469       O472   2.242       .  S
In469       O480   2.248       .  S
In469       O474   2.252       .  S
In469       O476   2.246       .  S
In469       O477   2.242       .  S
In469       O478   2.245       .  S
In469       O481   2.247       .  S
C470        O476   1.259       .  A
C470        O478   1.258       .  A
C470        C664   1.432       .  S
O471        C479   1.259       .  A
O472        C479   1.258       .  A
C473        O480   1.258       .  A
C473        O474   1.259       .  A
C473        C659   1.437       .  S
C475        O477   1.259       .  A
C475        O481   1.259       .  A
C475        C661   1.433       .  S
C479        C686   1.433       .  S
In482       O484   2.248       .  S
In482       O485   2.247       .  S
In482       O493   2.251       .  S
In482       O489   2.248       .  S
In482       O490   2.240       .  S
In482       O491   2.245       .  S
In482       O494   2.248       .  S
In482      O1303   2.254       .  S
C483        O489   1.259   1_556  A
C483        O491   1.258   1_556  A
C483        C658   1.433       .  S
O484        C492   1.259       .  A
O485        C492   1.259       .  A
C486        O487   1.259       .  A
C486       O1309   1.258   1_545  A
C486        C653   1.438       .  S
O487      In1298   2.254   1_545  S
C488        O490   1.259       .  A
C488        O494   1.259       .  A
C488        C656   1.433       .  S
C492        C694   1.435       .  S
O493       C1302   1.258       .  A
In495       O497   2.240       .  S
In495       O498   2.251       .  S
In495       O506   2.241       .  S
In495       O500   2.249       .  S
In495       O502   2.247       .  S
In495       O503   2.247       .  S
In495       O504   2.238       .  S
In495       O507   2.239       .  S
C496        O502   1.259       .  A
C496        O504   1.258       .  A
C496        C649   1.430       .  S
O497        C505   1.257       .  A
O498        C505   1.258       .  A
C499        O506   1.258       .  A
C499        O500   1.259       .  A
C499        C657   1.433       .  S
C501        O503   1.259       .  A
C501        O507   1.259       .  A
C501        C652   1.431       .  S
C505        C663   1.432       .  S
In508       O510   2.243       .  S
In508       O511   2.245       .  S
In508       O519   2.254       .  S
In508       O513   2.249       .  S
In508       O515   2.247       .  S
In508       O516   2.242       .  S
In508       O517   2.241       .  S
In508       O520   2.253       .  S
C509        O515   1.259       .  A
C509        O517   1.259       .  A
C509        C645   1.433       .  S
O510        C518   1.259       .  A
O511        C518   1.259       .  A
C512        O519   1.259       .  A
C512        O513   1.258       .  A
C512        C644   1.437       .  S
C514        O516   1.258       .  A
C514        O520   1.260       .  A
C514        C647   1.435       .  S
C518        C747   1.433       .  S
In521       O523   2.248       .  S
In521       O524   2.247       .  S
In521       O532   2.255       .  S
In521       O526   2.253       .  S
In521       O528   2.245       .  S
In521       O529   2.247       .  S
In521       O530   2.242       .  S
In521       O533   2.254       .  S
C522        O528   1.259       .  A
C522        O530   1.258       .  A
C522        C651   1.431       .  S
O523        C531   1.259       .  A
O524        C531   1.259       .  A
C525        O532   1.259       .  A
C525        O526   1.258       .  A
C525        C640   1.439       .  S
C527        O529   1.258       .  A
C527        O533   1.259       .  A
C527        C641   1.436   1_556  S
C531        C755   1.435       .  S
In534       O536   2.243       .  S
In534       O537   2.256       .  S
In534       O545   2.248       .  S
In534       O539   2.253       .  S
In534       O541   2.254       .  S
In534       O542   2.243       .  S
In534       O543   2.242       .  S
In534       O546   2.260       .  S
C535        O541   1.259       .  A
C535        O543   1.257       .  A
C535        C655   1.433       .  S
O536        C544   1.258       .  A
O537        C544   1.259       .  A
C538        O545   1.259       .  A
C538        O539   1.258       .  A
C538        C648   1.435       .  S
C540        O542   1.258       .  A
C540        O546   1.259       .  A
C540        C642   1.436       .  S
C544        C638   1.434       .  S
In547       O549   2.248       .  S
In547       O550   2.247       .  S
In547       O558   2.253       .  S
In547       O552   2.255       .  S
In547       O554   2.254       .  S
In547       O555   2.240       .  S
In547       O556   2.247       .  S
In547       O559   2.249       .  S
C548        O554   1.260       .  A
C548        O556   1.258       .  A
C548        C635   1.436       .  S
O549        C557   1.259       .  A
O550        C557   1.258       .  A
C551        O558   1.258       .  A
C551        O552   1.259       .  A
C551        C654   1.438       .  S
C553        O555   1.259       .  A
C553        O559   1.260       .  A
C553        C637   1.434       .  S
C557        C669   1.433       .  S
In560       O562   2.249       .  S
In560       O563   2.248       .  S
In560       O571   2.249       .  S
In560       O565   2.253       .  S
In560       O567   2.254       .  S
In560       O568   2.238       .  S
In560       O569   2.246       .  S
In560       O572   2.252       .  S
C561        O567   1.260       .  A
C561        O569   1.258       .  A
C561        C633   1.436       .  S
O562        C570   1.259       .  A
O563        C570   1.258       .  A
C564        O571   1.258       .  A
C564        O565   1.259       .  A
C564        C660   1.437       .  S
C566        O568   1.259       .  A
C566        O572   1.260       .  A
C566        C631   1.434       .  S
C570        C666   1.435       .  S
In573       O575   2.244       .  S
In573       O576   2.255       .  S
In573       O584   2.244       .  S
In573       O578   2.258       .  S
In573       O580   2.250       .  S
In573       O581   2.252       .  S
In573       O582   2.243       .  S
In573       O585   2.243       .  S
C574        O580   1.258       .  A
C574        O582   1.258       .  A
C574        C630   1.432       .  S
O575        C583   1.258       .  A
O576        C583   1.259       .  A
C577        O584   1.258       .  A
C577        O578   1.259       .  A
C577        C636   1.436       .  S
C579        O581   1.258       .  A
C579        O585   1.258       .  A
C579        C646   1.433       .  S
C583        C634   1.436       .  S
In586       O588   2.240       .  S
In586       O589   2.243       .  S
In586       O597   2.254       .  S
In586       O591   2.252       .  S
In586       O593   2.242       .  S
In586       O594   2.246       .  S
In586       O595   2.239       .  S
In586       O598   2.251       .  S
C587        O593   1.259       .  A
C587        O595   1.259       .  A
C587        C650   1.430       .  S
O588        C596   1.259       .  A
O589        C596   1.260       .  A
C590        O597   1.259       .  A
C590        O591   1.258       .  A
C590        C639   1.439       .  S
C592        O594   1.257       .  A
C592        O598   1.259       .  A
C592        C627   1.435       .  S
C596        C718   1.431       .  S
In599       O601   2.245       .  S
In599       O602   2.247       .  S
In599       O606   2.245       .  S
In599       O607   2.245       .  S
In599       O608   2.242       .  S
In599       O611   2.252       .  S
In599      O1426   2.253   1_545  S
In599      O1420   2.249       .  S
C600        O606   1.259       .  A
C600        O608   1.259       .  A
C600        C629   1.432       .  S
O601        C609   1.259       .  A
O602        C609   1.259       .  A
C603        O610   1.259       .  A
C603        O604   1.258       .  A
C603        C643   1.437       .  S
O604      In1415   2.249       .  S
C605        O607   1.258       .  A
C605        O611   1.260       .  A
C605        C625   1.435       .  S
C609        C714   1.434       .  S
O610      In1415   2.253       .  S
In612       O614   2.241       .  S
In612       O615   2.255       .  S
In612       O623   2.248       .  S
In612       O617   2.256       .  S
In612       O619   2.254       .  S
In612       O620   2.245       .  S
In612       O621   2.242       .  S
In612       O624   2.256       .  S
C613        O619   1.260       .  A
C613        O621   1.257       .  A
C613       C1478   1.433   1_545  S
O614        C622   1.258       .  A
O615        C622   1.259       .  A
C616        O623   1.258       .  A
C616        O617   1.258       .  A
C616        C626   1.436       .  S
C618        O620   1.258       .  A
C618        O624   1.259       .  A
C618        C628   1.435       .  S
C622        C632   1.434       .  S
C625        C626   1.206       .  T
C627        C628   1.205       .  T
C629        C630   1.204       .  T
C631        C632   1.205       .  T
C633        C634   1.206       .  T
C635        C636   1.206       .  T
C637        C638   1.205       .  T
C639        C640   1.208       .  T
C641        C642   1.206       .  T
C643        C644   1.207       .  T
C645        C646   1.204       .  T
C647        C648   1.206       .  T
C649       C1466   1.203       .  T
C650       C1465   1.203       .  T
C651        C652   1.203       .  T
C653        C654   1.208       .  T
C655        C656   1.204       .  T
C657        C658   1.204       .  T
C659        C660   1.207       .  T
C661        C662   1.205       .  T
C662       C1429   1.433       .  S
C663        C664   1.204       .  T
C665        C666   1.205       .  T
C667        C668   1.205       .  T
C669        C670   1.205       .  T
C671        C672   1.206       .  T
C673        C674   1.205       .  T
C675        C676   1.205       .  T
C677        C678   1.205       .  T
C679        C680   1.204       .  T
C681        C682   1.205       .  T
C683        C684   1.207       .  T
C685        C686   1.204       .  T
C687        C688   1.205       .  T
C689        C690   1.207       .  T
C691        C692   1.207       .  T
C693        C694   1.205       .  T
C695        C696   1.206       .  T
C697        C698   1.204       .  T
C699       C1165   1.435       .  S
C699        C700   1.205       .  T
C701        C702   1.206       .  T
C703        C704   1.203       .  T
C705        C706   1.205       .  T
C707        C708   1.206       .  T
C709       C1526   1.205       .  T
C710       C1525   1.205       .  T
C711        C712   1.205       .  T
C713        C714   1.205       .  T
C715        C716   1.205       .  T
C717        C718   1.203       .  T
C719        C720   1.205       .  T
C721       C1538   1.205       .  T
C722       C1537   1.205       .  T
C723        C724   1.205       .  T
C724       C1126   1.435       .  S
C725        C726   1.205       .  T
C727        C728   1.207       .  T
C729        C730   1.202       .  T
C731        C732   1.208       .  T
C733        C734   1.205       .  T
C735        C736   1.207       .  T
C737        C738   1.204       .  T
C739        C740   1.206       .  T
C741        C742   1.205       .  T
C743        C744   1.205       .  T
C745        C746   1.205       .  T
C747        C748   1.204       .  T
C749        C750   1.204       .  T
C751        C752   1.205       .  T
C753        C754   1.206       .  T
C755        C756   1.206       .  T
C757        C758   1.204       .  T
C759        C760   1.206       .  T
C761        C762   1.203       .  T
C763        C764   1.206       .  T
C765        C766   1.205       .  T
C767        C768   1.206       .  T
C769       C1586   1.203       .  T
C770       C1585   1.203       .  T
C771        C772   1.206       .  T
C773        C774   1.204       .  T
C775        C776   1.205       .  T
C777        C778   1.204       .  T
C778        C961   1.433       .  S
C779        C780   1.204       .  T
C781        C782   1.204       .  T
C783        C784   1.208       .  T
C785        C786   1.206       .  T
C787        C788   1.203       .  T
C789        C790   1.206       .  T
C791        C792   1.207       .  T
C793        C794   1.204       .  T
C795        C796   1.206       .  T
C797        C798   1.205       .  T
C799        C800   1.204       .  T
C801        C802   1.207       .  T
C803        C804   1.206       .  T
C805        C806   1.205       .  T
C807        C808   1.206       .  T
C809        C810   1.207       .  T
C811        C812   1.205       .  T
C813        C814   1.205       .  T
C815        C816   1.205       .  T
In817       O819   2.249       .  S
In817       O820   2.247       .  S
In817       O828   2.251       .  S
In817       O822   2.255       .  S
In817       O824   2.251       .  S
In817       O825   2.240       .  S
In817       O826   2.246       .  S
In817       O829   2.249       .  S
C818        O824   1.260       .  A
C818        O826   1.258       .  A
C818       C1631   1.435       .  S
O819        C827   1.259       .  A
O820        C827   1.258       .  A
C821        O828   1.258       .  A
C821        O822   1.259       .  A
C821       C1625   1.437       .  S
C823        O825   1.259       .  A
C823        O829   1.259       .  A
C823       C1629   1.434       .  S
C827       C1627   1.435       .  S
In830       O832   2.249       .  S
In830       O833   2.247       .  S
In830       O841   2.250       .  S
In830       O835   2.253       .  S
In830       O837   2.254       .  S
In830       O838   2.240       .  S
In830       O839   2.246       .  S
In830       O842   2.252       .  S
C831        O837   1.259   1_556  A
C831        O839   1.257   1_556  A
C831       C1624   1.435       .  S
O832        C840   1.259       .  A
O833        C840   1.259       .  A
C834        O841   1.259       .  A
C834        O835   1.259       .  A
C834       C1617   1.438       .  S
C836        O838   1.258       .  A
C836        O842   1.259       .  A
C836       C1622   1.433       .  S
C840       C1620   1.435       .  S
In843       O845   2.242       .  S
In843       O846   2.256       .  S
In843       O854   2.243       .  S
In843       O848   2.252       .  S
In843       O850   2.250       .  S
In843       O851   2.250       .  S
In843       O852   2.244       .  S
In843       O855   2.242       .  S
C844        O850   1.258       .  A
C844        O852   1.258       .  A
C844       C1613   1.433       .  S
O845        C853   1.258       .  A
O846        C853   1.259       .  A
C847        O854   1.258       .  A
C847        O848   1.259       .  A
C847       C1623   1.435       .  S
C849        O851   1.258       .  A
C849        O855   1.258       .  A
C849       C1616   1.432       .  S
C853       C1632   1.435       .  S
In856       O858   2.244       .  S
In856       O859   2.246       .  S
In856       O867   2.255       .  S
In856       O861   2.250       .  S
In856       O863   2.248       .  S
In856       O864   2.243       .  S
In856       O865   2.242       .  S
In856       O868   2.255       .  S
C857        O863   1.259       .  A
C857        O865   1.259       .  A
C857       C1614   1.433       .  S
O858        C866   1.259       .  A
O859        C866   1.259       .  A
C860        O867   1.260       .  A
C860        O861   1.258       .  A
C860       C1607   1.438       .  S
C862        O864   1.258       .  A
C862        O868   1.260       .  A
C862       C1611   1.436       .  S
C866       C1609   1.433       .  S
In869       O871   2.248       .  S
In869       O872   2.248       .  S
In869       O880   2.255       .  S
In869       O874   2.253       .  S
In869       O876   2.245       .  S
In869       O877   2.247       .  S
In869       O878   2.242       .  S
In869       O881   2.253       .  S
C870        O876   1.258       .  A
C870        O878   1.258       .  A
C870       C1604   1.431       .  S
O871        C879   1.259       .  A
O872        C879   1.260       .  A
C873        O880   1.259       .  A
C873        O874   1.258       .  A
C873       C1599   1.439       .  S
C875        O877   1.258       .  A
C875        O881   1.259       .  A
C875       C1605   1.436       .  S
C879       C1601   1.436       .  S
In882       O884   2.243       .  S
In882       O885   2.256       .  S
In882       O893   2.249       .  S
In882       O887   2.253       .  S
In882       O889   2.253       .  S
In882       O890   2.244       .  S
In882       O891   2.242       .  S
In882       O894   2.260       .  S
C883        O889   1.260       .  A
C883        O891   1.257       .  A
C883       C1597   1.433       .  S
O884        C892   1.258       .  A
O885        C892   1.259       .  A
C886        O893   1.259       .  A
C886        O887   1.258       .  A
C886       C1612   1.436       .  S
C888        O890   1.257       .  A
C888        O894   1.259       .  A
C888       C1606   1.436       .  S
C892       C1630   1.434       .  S
In895       O897   2.249       .  S
In895       O898   2.244       .  S
In895       O906   2.250       .  S
In895       O900   2.253       .  S
In895       O902   2.246       .  S
In895       O903   2.242       .  S
In895       O904   2.247       .  S
In895       O907   2.247       .  S
C896        O902   1.259       .  A
C896        O904   1.258       .  A
C896       C1595   1.433       .  S
O897        C905   1.259       .  A
O898        C905   1.258       .  A
C899        O906   1.258       .  A
C899        O900   1.259       .  A
C899       C1618   1.438       .  S
C901        O903   1.259       .  A
C901        O907   1.259       .  A
C901       C1593   1.433       .  S
C905       C1591   1.434       .  S
In908       O910   2.249       .  S
In908       O911   2.247       .  S
In908       O919   2.250       .  S
In908       O915   2.249       .  S
In908       O916   2.239       .  S
In908       O917   2.244       .  S
In908       O920   2.248       .  S
C909        O915   1.259       .  A
C909        O917   1.258       .  A
C909       C1589   1.433       .  S
O910        C918   1.259       .  A
O911        C918   1.258       .  A
C912        O913   1.259       .  A
C912       C1626   1.437       .  S
C914        O916   1.259       .  A
C914        O920   1.259       .  A
C914       C1598   1.433       .  S
C918       C1587   1.435       .  S
In921       O923   2.241       .  S
In921       O924   2.251       .  S
In921       O932   2.239       .  S
In921       O926   2.253       .  S
In921       O928   2.247       .  S
In921       O929   2.248       .  S
In921       O930   2.237       .  S
In921       O933   2.239       .  S
C922        O928   1.259       .  A
C922        O930   1.259       .  A
C922       C1603   1.431       .  S
O923        C931   1.258       .  A
O924        C931   1.259       .  A
C925        O932   1.257       .  A
C925        O926   1.259       .  A
C925       C1596   1.432       .  S
C927        O929   1.259       .  A
C927        O933   1.258       .  A
C927       C1585   1.431   1_565  S
C931       C1590   1.433       .  S
In934       O936   2.245       .  S
In934       O937   2.246       .  S
In934       O941   2.245       .  S
In934       O942   2.245       .  S
In934       O943   2.242       .  S
In934       O946   2.252       .  S
C935        O941   1.259       .  A
C935        O943   1.259       .  A
C935       C1615   1.432       .  S
O936        C944   1.259       .  A
O937        C944   1.259       .  A
C938        O945   1.259       .  A
C938        O939   1.258   1_565  A
C938       C1608   1.438       .  S
C940        O942   1.258       .  A
C940        O946   1.260       .  A
C940       C1584   1.436   1_556  S
C944       C1582   1.434       .  S
In947       O949   2.240       .  S
In947       O950   2.242       .  S
In947       O958   2.253       .  S
In947       O952   2.253       .  S
In947       O954   2.242       .  S
In947       O955   2.245       .  S
In947       O956   2.241       .  S
In947       O959   2.252       .  S
C948        O954   1.259       .  A
C948        O956   1.259       .  A
C948       C1586   1.431       .  S
O949        C957   1.259       .  A
O950        C957   1.259       .  A
C951        O958   1.259       .  A
C951        O952   1.258       .  A
C951       C1600   1.439       .  S
C953        O955   1.257       .  A
C953        O959   1.260       .  A
C953       C1580   1.435       .  S
C957       C1578   1.431       .  S
In960       O962   2.241       .  S
In960       O963   2.255       .  S
In960       O971   2.248       .  S
In960       O965   2.258       .  S
In960       O967   2.254       .  S
In960       O968   2.246       .  S
In960       O969   2.240       .  S
In960       O972   2.257       .  S
C961        O967   1.260       .  A
C961        O969   1.257       .  A
O962        C970   1.258       .  A
O963        C970   1.259       .  A
C964        O971   1.258       .  A
C964        O965   1.258       .  A
C964       C1583   1.436       .  S
C966        O968   1.258       .  A
C966        O972   1.258       .  A
C966       C1579   1.435       .  S
C970       C1621   1.433       .  S
In973       O975   2.244       .  S
In973       O976   2.249       .  S
In973       O984   2.252       .  S
In973       O978   2.250       .  S
In973       O980   2.249       .  S
In973       O981   2.243       .  S
In973       O982   2.241       .  S
In973       O985   2.253       .  S
C974        O980   1.259       .  A
C974        O982   1.259       .  A
C974       C1573   1.433       .  S
O975        C983   1.259       .  A
O976        C983   1.260       .  A
C977        O984   1.259       .  A
C977        O978   1.258       .  A
C977       C1570   1.436       .  S
C979        O981   1.258       .  A
C979        O985   1.260       .  A
C979       C1575   1.435   1_556  S
C983       C1572   1.435       .  S
In986       O988   2.244       .  S
In986       O989   2.245       .  S
In986       O997   2.248       .  S
In986       O991   2.247       .  S
In986       O993   2.246       .  S
In986       O994   2.243       .  S
In986       O995   2.241       .  S
In986       O998   2.248       .  S
C987        O993   1.259       .  A
C987        O995   1.259       .  A
C987       C1565   1.432       .  S
O988        C996   1.258       .  A
O989        C996   1.259       .  A
C990        O997   1.259       .  A
C990        O991   1.258       .  A
C990       C1561   1.435       .  S
C992        O994   1.258       .  A
C992        O998   1.259       .  A
C992       C1567   1.433       .  S
C996       C1564   1.433       .  S
In999      O1001   2.241       .  S
In999      O1002   2.259       .  S
In999      O1010   2.247       .  S
In999      O1004   2.253       .  S
In999      O1006   2.252       .  S
In999      O1007   2.241       .  S
In999      O1008   2.244       .  S
In999      O1011   2.258       .  S
C1000      O1006   1.260       .  A
C1000      O1008   1.258       .  A
C1000      C1559   1.434       .  S
O1001      C1009   1.258       .  A
O1002      C1009   1.259       .  A
C1003      O1010   1.259       .  A
C1003      O1004   1.258       .  A
C1003      C1576   1.435       .  S
C1005      O1007   1.257       .  A
C1005      O1011   1.259       .  A
C1005      C1568   1.433       .  S
C1009      C1557   1.434       .  S
In1012     O1014   2.247       .  S
In1012     O1015   2.244       .  S
In1012     O1023   2.249       .  S
In1012     O1017   2.254       .  S
In1012     O1019   2.251       .  S
In1012     O1020   2.240       .  S
In1012     O1021   2.249       .  S
In1012     O1024   2.248       .  S
C1013      O1019   1.259       .  A
C1013      O1021   1.258       .  A
C1013      C1555   1.435       .  S
O1014      C1022   1.260       .  A
O1015      C1022   1.259       .  A
C1016      O1023   1.258       .  A
C1016      O1017   1.259       .  A
C1016      C1551   1.437       .  S
C1018      O1020   1.259       .  A
C1018      O1024   1.259       .  A
C1018      C1554   1.433       .  S
C1022      C1628   1.434       .  S
In1025     O1027   2.252       .  S
In1025     O1028   2.246       .  S
In1025     O1036   2.251       .  S
In1025     O1030   2.255       .  S
In1025     O1032   2.251       .  S
In1025     O1033   2.243       .  S
In1025     O1034   2.249       .  S
In1025     O1037   2.253       .  S
C1026      O1032   1.259   1_556  A
C1026      O1034   1.258   1_556  A
C1026      C1549   1.435       .  S
O1027      C1035   1.259       .  A
O1028      C1035   1.258       .  A
C1029      O1036   1.258       .  A
C1029      O1030   1.259       .  A
C1029      C1548   1.438       .  S
C1031      O1033   1.258       .  A
C1031      O1037   1.259       .  A
C1031      C1558   1.434       .  S
C1035      C1619   1.435       .  S
In1038     O1040   2.245       .  S
In1038     O1041   2.250       .  S
In1038     O1049   2.242       .  S
In1038     O1043   2.254       .  S
In1038     O1045   2.248       .  S
In1038     O1046   2.248       .  S
In1038     O1047   2.238       .  S
In1038     O1050   2.242       .  S
C1039      O1045   1.258       .  A
C1039      O1047   1.258       .  A
C1039      C1545   1.429       .  S
O1040      C1048   1.258       .  A
O1041      C1048   1.259       .  A
C1042      O1049   1.258       .  A
C1042      O1043   1.259       .  A
C1042      C1550   1.435       .  S
C1044      O1046   1.259       .  A
C1044      O1050   1.259       .  A
C1044      C1574   1.433       .  S
C1048      C1556   1.435       .  S
In1051     O1053   2.247       .  S
In1051     O1054   2.245       .  S
In1051     O1062   2.254       .  S
In1051     O1058   2.253       .  S
In1051     O1059   2.241       .  S
In1051     O1060   2.250       .  S
In1051     O1063   2.251       .  S
C1052      O1058   1.260       .  A
C1052      O1060   1.258       .  A
C1052      C1543   1.437       .  S
O1053      C1061   1.259       .  A
O1054      C1061   1.258       .  A
C1055      O1056   1.259       .  A
C1055      C1547   1.439       .  S
C1057      O1059   1.259       .  A
C1057      O1063   1.260       .  A
C1057      C1560   1.434       .  S
C1061      C1592   1.434       .  S
In1064     O1066   2.250       .  S
In1064     O1067   2.245       .  S
In1064     O1075   2.249       .  S
In1064     O1069   2.254       .  S
In1064     O1071   2.252       .  S
In1064     O1072   2.243       .  S
In1064     O1073   2.245       .  S
In1064     O1076   2.252       .  S
C1065      O1071   1.260       .  A
C1065      O1073   1.258       .  A
C1065      C1541   1.435       .  S
O1066      C1074   1.259       .  A
O1067      C1074   1.258       .  A
C1068      O1075   1.258       .  A
C1068      O1069   1.260       .  A
C1068      C1552   1.438       .  S
C1070      O1072   1.258       .  A
C1070      O1076   1.259       .  A
C1070      C1539   1.435       .  S
C1074      C1588   1.435       .  S
In1077     O1079   2.247       .  S
In1077     O1080   2.259       .  S
In1077     O1088   2.245       .  S
In1077     O1082   2.257       .  S
In1077     O1084   2.252       .  S
In1077     O1085   2.253       .  S
In1077     O1086   2.241       .  S
In1077     O1089   2.242       .  S
C1078      O1084   1.259       .  A
C1078      O1086   1.258       .  A
C1078      C1566   1.433       .  S
O1079      C1087   1.258       .  A
O1080      C1087   1.259       .  A
C1081      O1088   1.257       .  A
C1081      O1082   1.258       .  A
C1081      C1542   1.435       .  S
C1083      O1085   1.260       .  A
C1083      O1089   1.259       .  A
C1083      C1538   1.434   1_565  S
C1087      C1544   1.437       .  S
In1090     O1092   2.239       .  S
In1090     O1093   2.242       .  S
In1090     O1097   2.242       .  S
In1090     O1098   2.243       .  S
In1090     O1099   2.237       .  S
In1090     O1102   2.250       .  S
C1091      O1097   1.259       .  A
C1091      O1099   1.258       .  A
C1091      C1546   1.429       .  S
O1092      C1100   1.258       .  A
O1093      C1100   1.259       .  A
C1094      O1101   1.259       .  A
C1094      O1095   1.258   1_565  A
C1094      C1569   1.436       .  S
C1096      O1098   1.258       .  A
C1096      O1102   1.259       .  A
C1096      C1536   1.433       .  S
C1100      C1533   1.431       .  S
In1103     O1105   2.245       .  S
In1103     O1106   2.246       .  S
In1103     O1114   2.251       .  S
In1103     O1108   2.247       .  S
In1103     O1110   2.251       .  S
In1103     O1111   2.242       .  S
In1103     O1112   2.240       .  S
In1103     O1115   2.249       .  S
C1104      O1110   1.259       .  A
C1104      O1112   1.259       .  A
C1104      C1537   1.434       .  S
O1105      C1113   1.259       .  A
O1106      C1113   1.259       .  A
C1107      O1114   1.259       .  A
C1107      O1108   1.258       .  A
C1107      C1562   1.435       .  S
C1109      O1111   1.258       .  A
C1109      O1115   1.259       .  A
C1109      C1532   1.433       .  S
C1113      C1529   1.434       .  S
In1116     O1118   2.244       .  S
In1116     O1119   2.257       .  S
In1116     O1127   2.242       .  S
In1116     O1121   2.253       .  S
In1116     O1123   2.252       .  S
In1116     O1124   2.239       .  S
In1116     O1125   2.242       .  S
In1116     O1128   2.259       .  S
C1117      O1123   1.259       .  A
C1117      O1125   1.257       .  A
C1117      C1553   1.433       .  S
O1118      C1126   1.258       .  A
O1119      C1126   1.258       .  A
C1120      O1127   1.258       .  A
C1120      O1121   1.259       .  A
C1120      C1531   1.433       .  S
C1122      O1124   1.257       .  A
C1122      O1128   1.259       .  A
C1122      C1535   1.433       .  S
In1129     O1131   2.244       .  S
In1129     O1132   2.246       .  S
In1129     O1140   2.251       .  S
In1129     O1134   2.248       .  S
In1129     O1136   2.250       .  S
In1129     O1137   2.243       .  S
In1129     O1138   2.241       .  S
In1129     O1141   2.249       .  S
C1130      O1136   1.259       .  A
C1130      O1138   1.259       .  A
C1130      C1525   1.434       .  S
O1131      C1139   1.259       .  A
O1132      C1139   1.259       .  A
C1133      O1140   1.259       .  A
C1133      O1134   1.258       .  A
C1133      C1523   1.435       .  S
C1135      O1137   1.258       .  A
C1135      O1141   1.259       .  A
C1135      C1528   1.433   1_556  S
C1139      C1581   1.434       .  S
In1142     O1144   2.238       .  S
In1142     O1145   2.242       .  S
In1142     O1149   2.243       .  S
In1142     O1150   2.243       .  S
In1142     O1151   2.238       .  S
In1142     O1154   2.250       .  S
C1143      O1149   1.259       .  A
C1143      O1151   1.258       .  A
C1143      C1520   1.430       .  S
O1144      C1152   1.258       .  A
O1145      C1152   1.259       .  A
C1146      O1153   1.259       .  A
C1146      O1147   1.258   1_565  A
C1146      C1518   1.436       .  S
C1148      O1150   1.257       .  A
C1148      O1154   1.259       .  A
C1148      C1522   1.433       .  S
C1152      C1577   1.430       .  S
In1155     O1157   2.244   1_455  S
In1155     O1158   2.256   1_455  S
In1155     O1166   2.242       .  S
In1155     O1160   2.253       .  S
In1155     O1162   2.251       .  S
In1155     O1163   2.239       .  S
In1155     O1164   2.242   1_455  S
In1155     O1167   2.258       .  S
C1156      O1162   1.259   1_655  A
C1156      O1164   1.258       .  A
C1156      C1514   1.432       .  S
O1157      C1165   1.258       .  A
O1158      C1165   1.259       .  A
C1159      O1166   1.258       .  A
C1159      O1160   1.259       .  A
C1159      C1527   1.433       .  S
C1161      O1163   1.257       .  A
C1161      O1167   1.259       .  A
C1161      C1521   1.433       .  S
In1168     O1170   2.249       .  S
In1168     O1171   2.245       .  S
In1168     O1179   2.250       .  S
In1168     O1173   2.253       .  S
In1168     O1175   2.252       .  S
In1168     O1176   2.242       .  S
In1168     O1177   2.245       .  S
In1168     O1180   2.253       .  S
C1169      O1175   1.260   1_556  A
C1169      O1177   1.258   1_556  A
C1169      C1511   1.435       .  S
O1170      C1178   1.259       .  A
O1171      C1178   1.259       .  A
C1172      O1179   1.259       .  A
C1172      O1173   1.259       .  A
C1172      C1507   1.437       .  S
C1174      O1176   1.258       .  A
C1174      O1180   1.259       .  A
C1174      C1516   1.435       .  S
C1178      C1509   1.435       .  S
In1181     O1183   2.246       .  S
In1181     O1184   2.245       .  S
In1181     O1192   2.253       .  S
In1181     O1188   2.253       .  S
In1181     O1189   2.239       .  S
In1181     O1190   2.250       .  S
In1181     O1193   2.251       .  S
C1182      O1188   1.260       .  A
C1182      O1190   1.258       .  A
C1182      C1505   1.437       .  S
O1183      C1191   1.259       .  A
O1184      C1191   1.258       .  A
C1185      O1186   1.259       .  A
C1185      C1500   1.438       .  S
C1187      O1189   1.259       .  A
C1187      O1193   1.260       .  A
C1187      C1503   1.434       .  S
C1191      C1501   1.433       .  S
In1194     O1196   2.246       .  S
In1194     O1197   2.258       .  S
In1194     O1205   2.247       .  S
In1194     O1199   2.259       .  S
In1194     O1201   2.253   1_655  S
In1194     O1202   2.253   1_655  S
In1194     O1203   2.241   1_655  S
In1194     O1206   2.243   1_655  S
C1195      O1201   1.260       .  A
C1195      O1203   1.259       .  A
C1195      C1526   1.434   1_565  S
O1196      C1204   1.257       .  A
O1197      C1204   1.258       .  A
C1198      O1205   1.258       .  A
C1198      O1199   1.259       .  A
C1198      C1506   1.437       .  S
C1200      O1202   1.259       .  A
C1200      O1206   1.258       .  A
C1200      C1498   1.434       .  S
C1204      C1512   1.435       .  S
In1207     O1209   2.243       .  S
In1207     O1210   2.245       .  S
In1207     O1218   2.250       .  S
In1207     O1212   2.247       .  S
In1207     O1214   2.247       .  S
In1207     O1215   2.242       .  S
In1207     O1216   2.243       .  S
In1207     O1219   2.248       .  S
C1208      O1214   1.259       .  A
C1208      O1216   1.259       .  A
C1208      C1497   1.433       .  S
O1209      C1217   1.259       .  A
O1210      C1217   1.259       .  A
C1211      O1218   1.259       .  A
C1211      O1212   1.258       .  A
C1211      C1524   1.435       .  S
C1213      O1215   1.258       .  A
C1213      O1219   1.259       .  A
C1213      C1495   1.433       .  S
C1217      C1610   1.433       .  S
In1220     O1222   2.246       .  S
In1220     O1223   2.250       .  S
In1220     O1231   2.252       .  S
In1220     O1225   2.250       .  S
In1220     O1227   2.248       .  S
In1220     O1228   2.243       .  S
In1220     O1229   2.243       .  S
In1220     O1232   2.252       .  S
C1221      O1227   1.259       .  A
C1221      O1229   1.259       .  A
C1221      C1491   1.434       .  S
O1222      C1230   1.259       .  A
O1223      C1230   1.260       .  A
C1224      O1231   1.259       .  A
C1224      O1225   1.258       .  A
C1224      C1517   1.436       .  S
C1226      O1228   1.258       .  A
C1226      O1232   1.260       .  A
C1226      C1494   1.434       .  S
C1230      C1602   1.436       .  S
In1233     O1235   2.240   1_455  S
In1233     O1236   2.259   1_455  S
In1233     O1244   2.246       .  S
In1233     O1238   2.253       .  S
In1233     O1240   2.252       .  S
In1233     O1241   2.239       .  S
In1233     O1242   2.243   1_455  S
In1233     O1245   2.258       .  S
C1234      O1240   1.260   1_655  A
C1234      O1242   1.258       .  A
C1234      C1504   1.434       .  S
O1235      C1243   1.258       .  A
O1236      C1243   1.259       .  A
C1237      O1244   1.259       .  A
C1237      O1238   1.258       .  A
C1237      C1493   1.435       .  S
C1239      O1241   1.257       .  A
C1239      O1245   1.259       .  A
C1239      C1496   1.433       .  S
C1243      C1489   1.434       .  S
In1246     O1248   2.246       .  S
In1246     O1249   2.243       .  S
In1246     O1257   2.249       .  S
In1246     O1251   2.253       .  S
In1246     O1253   2.251       .  S
In1246     O1254   2.239       .  S
In1246     O1255   2.250       .  S
In1246     O1258   2.249       .  S
C1247      O1253   1.259       .  A
C1247      O1255   1.258       .  A
C1247      C1488   1.435       .  S
O1248      C1256   1.260       .  A
O1249      C1256   1.259       .  A
C1250      O1257   1.258       .  A
C1250      O1251   1.259       .  A
C1250      C1508   1.437       .  S
C1252      O1254   1.259       .  A
C1252      O1258   1.259       .  A
C1252      C1513   1.432       .  S
C1256      C1486   1.433       .  S
In1259     O1261   2.251       .  S
In1259     O1262   2.246       .  S
In1259     O1270   2.251       .  S
In1259     O1264   2.255       .  S
In1259     O1266   2.250       .  S
In1259     O1267   2.243       .  S
In1259     O1268   2.248       .  S
In1259     O1271   2.253       .  S
C1260      O1266   1.259       .  A
C1260      O1268   1.258       .  A
C1260      C1483   1.434       .  S
O1261      C1269   1.259       .  A
O1262      C1269   1.258       .  A
C1263      O1270   1.258       .  A
C1263      O1264   1.259       .  A
C1263      C1499   1.438       .  S
C1265      O1267   1.258       .  A
C1265      O1271   1.259       .  A
C1265      C1490   1.434       .  S
C1269      C1481   1.435       .  S
In1272     O1274   2.246       .  S
In1272     O1275   2.251       .  S
In1272     O1283   2.242       .  S
In1272     O1277   2.253       .  S
In1272     O1279   2.249   1_655  S
In1272     O1280   2.249   1_655  S
In1272     O1281   2.240   1_655  S
In1272     O1284   2.242   1_655  S
C1273      O1279   1.258       .  A
C1273      O1281   1.258       .  A
C1273      C1519   1.430       .  S
O1274      C1282   1.258       .  A
O1275      C1282   1.258       .  A
C1276      O1283   1.258       .  A
C1276      O1277   1.259       .  A
C1276      C1484   1.434       .  S
C1278      O1280   1.259       .  A
C1278      O1284   1.259       .  A
C1278      C1492   1.434       .  S
C1282      C1487   1.435       .  S
In1285     O1287   2.248       .  S
In1285     O1288   2.242       .  S
In1285     O1296   2.248       .  S
In1285     O1290   2.252       .  S
In1285     O1292   2.246       .  S
In1285     O1293   2.242       .  S
In1285     O1294   2.245       .  S
In1285     O1297   2.247       .  S
C1286      O1292   1.259       .  A
C1286      O1294   1.258       .  A
C1286      C1480   1.432       .  S
O1287      C1295   1.259       .  A
O1288      C1295   1.258       .  A
C1289      O1296   1.258       .  A
C1289      O1290   1.259       .  A
C1289      C1475   1.437       .  S
C1291      O1293   1.259       .  A
C1291      O1297   1.259       .  A
C1291      C1477   1.433       .  S
C1295      C1502   1.433       .  S
In1298     O1300   2.248       .  S
In1298     O1301   2.247       .  S
In1298     O1309   2.251       .  S
In1298     O1305   2.248       .  S
In1298     O1306   2.240       .  S
In1298     O1307   2.245       .  S
In1298     O1310   2.248       .  S
C1299      O1305   1.259   1_556  A
C1299      O1307   1.258   1_556  A
C1299      C1474   1.433       .  S
O1300      C1308   1.259       .  A
O1301      C1308   1.259       .  A
C1302      O1303   1.259       .  A
C1302      C1469   1.438       .  S
C1304      O1306   1.259       .  A
C1304      O1310   1.259       .  A
C1304      C1472   1.433       .  S
C1308      C1510   1.435       .  S
In1311     O1313   2.240       .  S
In1311     O1314   2.251       .  S
In1311     O1322   2.241       .  S
In1311     O1316   2.249       .  S
In1311     O1318   2.247       .  S
In1311     O1319   2.247       .  S
In1311     O1320   2.238       .  S
In1311     O1323   2.239       .  S
C1312      O1318   1.259       .  A
C1312      O1320   1.258       .  A
C1312      C1465   1.430   1_565  S
O1313      C1321   1.257       .  A
O1314      C1321   1.258       .  A
C1315      O1322   1.258       .  A
C1315      O1316   1.259       .  A
C1315      C1473   1.433       .  S
C1317      O1319   1.259       .  A
C1317      O1323   1.259       .  A
C1317      C1468   1.431       .  S
C1321      C1479   1.432       .  S
In1324     O1326   2.243       .  S
In1324     O1327   2.245       .  S
In1324     O1335   2.254       .  S
In1324     O1329   2.249       .  S
In1324     O1331   2.247       .  S
In1324     O1332   2.242       .  S
In1324     O1333   2.241       .  S
In1324     O1336   2.253       .  S
C1325      O1331   1.259       .  A
C1325      O1333   1.259       .  A
C1325      C1461   1.433       .  S
O1326      C1334   1.259       .  A
O1327      C1334   1.259       .  A
C1328      O1335   1.259       .  A
C1328      O1329   1.258       .  A
C1328      C1460   1.437       .  S
C1330      O1332   1.258       .  A
C1330      O1336   1.260       .  A
C1330      C1463   1.435       .  S
C1334      C1563   1.433       .  S
In1337     O1339   2.248       .  S
In1337     O1340   2.247       .  S
In1337     O1348   2.255       .  S
In1337     O1342   2.253       .  S
In1337     O1344   2.245       .  S
In1337     O1345   2.247       .  S
In1337     O1346   2.242       .  S
In1337     O1349   2.254       .  S
C1338      O1344   1.259       .  A
C1338      O1346   1.258       .  A
C1338      C1467   1.431       .  S
O1339      C1347   1.259       .  A
O1340      C1347   1.259       .  A
C1341      O1348   1.259       .  A
C1341      O1342   1.258       .  A
C1341      C1456   1.439       .  S
C1343      O1345   1.258       .  A
C1343      O1349   1.259       .  A
C1343      C1457   1.436   1_556  S
C1347      C1571   1.435       .  S
In1350     O1352   2.243       .  S
In1350     O1353   2.256       .  S
In1350     O1361   2.248       .  S
In1350     O1355   2.253       .  S
In1350     O1357   2.254       .  S
In1350     O1358   2.243       .  S
In1350     O1359   2.242       .  S
In1350     O1362   2.260       .  S
C1351      O1357   1.259       .  A
C1351      O1359   1.257       .  A
C1351      C1471   1.433       .  S
O1352      C1360   1.258       .  A
O1353      C1360   1.259       .  A
C1354      O1361   1.259       .  A
C1354      O1355   1.258       .  A
C1354      C1464   1.435       .  S
C1356      O1358   1.258       .  A
C1356      O1362   1.259       .  A
C1356      C1458   1.436       .  S
C1360      C1454   1.434       .  S
In1363     O1365   2.248       .  S
In1363     O1366   2.247       .  S
In1363     O1374   2.253       .  S
In1363     O1368   2.255       .  S
In1363     O1370   2.254       .  S
In1363     O1371   2.240       .  S
In1363     O1372   2.247       .  S
In1363     O1375   2.249       .  S
C1364      O1370   1.260       .  A
C1364      O1372   1.258       .  A
C1364      C1451   1.436       .  S
O1365      C1373   1.259       .  A
O1366      C1373   1.258       .  A
C1367      O1374   1.258       .  A
C1367      O1368   1.259       .  A
C1367      C1470   1.438       .  S
C1369      O1371   1.259       .  A
C1369      O1375   1.260       .  A
C1369      C1453   1.434       .  S
C1373      C1485   1.433       .  S
In1376     O1378   2.249       .  S
In1376     O1379   2.248       .  S
In1376     O1387   2.249       .  S
In1376     O1381   2.253       .  S
In1376     O1383   2.254       .  S
In1376     O1384   2.238       .  S
In1376     O1385   2.246       .  S
In1376     O1388   2.252       .  S
C1377      O1383   1.260       .  A
C1377      O1385   1.258       .  A
C1377      C1449   1.436       .  S
O1378      C1386   1.259       .  A
O1379      C1386   1.258       .  A
C1380      O1387   1.258       .  A
C1380      O1381   1.259       .  A
C1380      C1476   1.437       .  S
C1382      O1384   1.259       .  A
C1382      O1388   1.260       .  A
C1382      C1447   1.434       .  S
C1386      C1482   1.435       .  S
In1389     O1391   2.244       .  S
In1389     O1392   2.255       .  S
In1389     O1400   2.244       .  S
In1389     O1394   2.258       .  S
In1389     O1396   2.251       .  S
In1389     O1397   2.252       .  S
In1389     O1398   2.243       .  S
In1389     O1401   2.243       .  S
C1390      O1396   1.258       .  A
C1390      O1398   1.258       .  A
C1390      C1446   1.432       .  S
O1391      C1399   1.258       .  A
O1392      C1399   1.259       .  A
C1393      O1400   1.258       .  A
C1393      O1394   1.259       .  A
C1393      C1452   1.436       .  S
C1395      O1397   1.258       .  A
C1395      O1401   1.258       .  A
C1395      C1462   1.433       .  S
C1399      C1450   1.436       .  S
In1402     O1404   2.240       .  S
In1402     O1405   2.243       .  S
In1402     O1413   2.254       .  S
In1402     O1407   2.252       .  S
In1402     O1409   2.242       .  S
In1402     O1410   2.246       .  S
In1402     O1411   2.239       .  S
In1402     O1414   2.251       .  S
C1403      O1409   1.259       .  A
C1403      O1411   1.259       .  A
C1403      C1466   1.430       .  S
O1404      C1412   1.259       .  A
O1405      C1412   1.260       .  A
C1406      O1413   1.259       .  A
C1406      O1407   1.258       .  A
C1406      C1455   1.439       .  S
C1408      O1410   1.257       .  A
C1408      O1414   1.259       .  A
C1408      C1443   1.435       .  S
C1412      C1534   1.431       .  S
In1415     O1417   2.245       .  S
In1415     O1418   2.247       .  S
In1415     O1422   2.245       .  S
In1415     O1423   2.245       .  S
In1415     O1424   2.242       .  S
In1415     O1427   2.252       .  S
C1416      O1422   1.259       .  A
C1416      O1424   1.259       .  A
C1416      C1445   1.432       .  S
O1417      C1425   1.259       .  A
O1418      C1425   1.259       .  A
C1419      O1426   1.259       .  A
C1419      O1420   1.258   1_565  A
C1419      C1459   1.437       .  S
C1421      O1423   1.258       .  A
C1421      O1427   1.260       .  A
C1421      C1441   1.435       .  S
C1425      C1530   1.434       .  S
In1428     O1430   2.241       .  S
In1428     O1431   2.255       .  S
In1428     O1439   2.248       .  S
In1428     O1433   2.256       .  S
In1428     O1435   2.254       .  S
In1428     O1436   2.245       .  S
In1428     O1437   2.242       .  S
In1428     O1440   2.256       .  S
C1429      O1435   1.260       .  A
C1429      O1437   1.257       .  A
O1430      C1438   1.258       .  A
O1431      C1438   1.259       .  A
C1432      O1439   1.258       .  A
C1432      O1433   1.258       .  A
C1432      C1442   1.436       .  S
C1434      O1436   1.258       .  A
C1434      O1440   1.259       .  A
C1434      C1444   1.435       .  S
C1438      C1448   1.434       .  S
C1441      C1442   1.206       .  T
C1443      C1444   1.205       .  T
C1445      C1446   1.204       .  T
C1447      C1448   1.205       .  T
C1449      C1450   1.206       .  T
C1451      C1452   1.206       .  T
C1453      C1454   1.205       .  T
C1455      C1456   1.208       .  T
C1457      C1458   1.206       .  T
C1459      C1460   1.207       .  T
C1461      C1462   1.204       .  T
C1463      C1464   1.206       .  T
C1467      C1468   1.203       .  T
C1469      C1470   1.208       .  T
C1471      C1472   1.204       .  T
C1473      C1474   1.204       .  T
C1475      C1476   1.207       .  T
C1477      C1478   1.205       .  T
C1479      C1480   1.204       .  T
C1481      C1482   1.205       .  T
C1483      C1484   1.205       .  T
C1485      C1486   1.205       .  T
C1487      C1488   1.206       .  T
C1489      C1490   1.205       .  T
C1491      C1492   1.205       .  T
C1493      C1494   1.205       .  T
C1495      C1496   1.204       .  T
C1497      C1498   1.205       .  T
C1499      C1500   1.207       .  T
C1501      C1502   1.204       .  T
C1503      C1504   1.205       .  T
C1505      C1506   1.207       .  T
C1507      C1508   1.207       .  T
C1509      C1510   1.205       .  T
C1511      C1512   1.206       .  T
C1513      C1514   1.204       .  T
C1515      C1516   1.205       .  T
C1517      C1518   1.206       .  T
C1519      C1520   1.203       .  T
C1521      C1522   1.205       .  T
C1523      C1524   1.206       .  T
C1527      C1528   1.205       .  T
C1529      C1530   1.205       .  T
C1531      C1532   1.205       .  T
C1533      C1534   1.203       .  T
C1535      C1536   1.205       .  T
C1539      C1540   1.205       .  T
C1541      C1542   1.205       .  T
C1543      C1544   1.207       .  T
C1545      C1546   1.202       .  T
C1547      C1548   1.208       .  T
C1549      C1550   1.205       .  T
C1551      C1552   1.207       .  T
C1553      C1554   1.204       .  T
C1555      C1556   1.206       .  T
C1557      C1558   1.205       .  T
C1559      C1560   1.205       .  T
C1561      C1562   1.205       .  T
C1563      C1564   1.204       .  T
C1565      C1566   1.204       .  T
C1567      C1568   1.205       .  T
C1569      C1570   1.206       .  T
C1571      C1572   1.206       .  T
C1573      C1574   1.204       .  T
C1575      C1576   1.206       .  T
C1577      C1578   1.203       .  T
C1579      C1580   1.206       .  T
C1581      C1582   1.205       .  T
C1583      C1584   1.206       .  T
C1587      C1588   1.206       .  T
C1589      C1590   1.204       .  T
C1591      C1592   1.205       .  T
C1593      C1594   1.204       .  T
C1595      C1596   1.204       .  T
C1597      C1598   1.204       .  T
C1599      C1600   1.208       .  T
C1601      C1602   1.206       .  T
C1603      C1604   1.203       .  T
C1605      C1606   1.206       .  T
C1607      C1608   1.207       .  T
C1609      C1610   1.204       .  T
C1611      C1612   1.206       .  T
C1613      C1614   1.205       .  T
C1615      C1616   1.204       .  T
C1617      C1618   1.207       .  T
C1619      C1620   1.206       .  T
C1621      C1622   1.205       .  T
C1623      C1624   1.206       .  T
C1625      C1626   1.207       .  T
C1627      C1628   1.205       .  T
C1629      C1630   1.205       .  T
C1631      C1632   1.205       .  T
