geometry optimzed in LAMMPS
_audit_creation_date              2020-11-30 
_audit_creation_method            'lammps2cif' 
_symmetry_space_group_name_H-M    'P1' 
_symmetry_Int_Tables_number       1 
_symmetry_cell_setting            triclinic 
loop_ 
_symmetry_equiv_pos_as_xyz 
  x,y,z 
_cell_length_a                    53.02140134 
_cell_length_b                    34.23754513845439 
_cell_length_c                    43.15882847366704 
_cell_angle_alpha                 90.09733878072007 
_cell_angle_beta                  90.19239769606885 
_cell_angle_gamma                 90.10260450702549 
loop_ 
_atom_site_label 
_atom_site_type_symbol 
_atom_site_fract_x 
_atom_site_fract_y 
_atom_site_fract_z 
_atom_site_charge 
O1          O  0.15567356  0.65642533  0.25023455    -0.57500
C2          C  0.21756866  0.56993464  0.25214304     0.75100
O3          O  0.23153784  0.68293372  0.21400274    -0.58700
C4          C  0.15550792  0.69360481  0.25089156     0.75100
C5          C  0.21698760  0.67215230  0.31358321     0.77500
Cd6        Cd  0.20245408  0.65141854  0.25167781     1.37500
O7          O  0.19442588  0.57948701  0.25069077    -0.57500
O8          O  0.19710470  0.65319315  0.30731102    -0.56300
C9          C  0.21895430  0.67138135  0.19057402     0.77400
O10         O  0.23039369  0.68275058  0.29069155    -0.58700
O11         O  0.23308463  0.59798548  0.25359956    -0.57100
O12         O  0.17685759  0.71023733  0.25142779    -0.57100
O13         O  0.19923000  0.65177576  0.19601634    -0.56300
O14         O  0.06172475  0.81923625  0.25225898    -0.57500
C15         C  0.00017676  0.90612023  0.25255995     0.75100
O16         O  0.48718469  0.79170389  0.21246396    -0.58700
C17         C  0.06189528  0.78212808  0.25030737     0.75100
C18         C  0.49928406  0.80413011  0.31196656     0.77500
Cd19       Cd  0.01507801  0.82450221  0.25088354     1.37500
O20         O  0.02312025  0.89648956  0.24875490    -0.57500
O21         O  0.01957739  0.82233952  0.30646885    -0.56300
C22         C  0.49986541  0.80356998  0.18935247     0.77400
O23         O  0.48629968  0.79342050  0.28861304    -0.58700
O24         O  0.48471017  0.87821145  0.25530310    -0.57100
O25         O  0.04055323  0.76553269  0.24923834    -0.57100
O26         O  0.01884033  0.82473808  0.19522091    -0.56300
O27         O  0.40688404  0.82068191  0.00067649    -0.57500
C28         C  0.46794616  0.90801244  0.50285404     0.75100
O29         O  0.48170469  0.79265851  0.03899429    -0.58700
C30         C  0.40674679  0.78349548  0.00109667     0.75100
C31         C  0.46960348  0.80544165  0.43994668     0.77500
Cd32       Cd  0.45360372  0.82608125  0.00121872     1.37500
O33         O  0.44488679  0.89794205  0.50129575    -0.57500
O34         O  0.44902820  0.82278823  0.44534854    -0.56300
C35         C  0.46873499  0.80297655  0.06232466     0.77400
O36         O  0.48294136  0.79652346  0.46338782    -0.58700
O37         O  0.48385137  0.88053948  0.50312592    -0.57100
O38         O  0.42811905  0.76708159  0.00118420    -0.57100
O39         O  0.44929228  0.82323659  0.05688478    -0.56300
O40         O  0.31312758  0.65706234  0.00049554    -0.57500
C41         C  0.25113437  0.56939453  0.50196073     0.75100
O42         O  0.23891983  0.68208401  0.04080937    -0.58700
C43         C  0.31309599  0.69424979  0.99978317     0.75100
C44         C  0.24988223  0.67012449  0.44049078     0.77500
Cd45       Cd  0.26651708  0.65079713  0.00176851     1.37500
O46         O  0.27437856  0.57870340  0.50117250    -0.57500
O47         O  0.26913810  0.64948857  0.44593995    -0.56300
C48         C  0.25214466  0.67109990  0.06383867     0.77400
O49         O  0.23770961  0.68243038  0.46389127    -0.58700
O50         O  0.23575602  0.59756043  0.50274919    -0.57100
O51         O  0.29164373  0.71042563  0.99998499    -0.57100
O52         O  0.27183168  0.65180475  0.05773164    -0.56300
O53         O  0.40651281  0.15578481  0.24893154    -0.57500
C54         C  0.46798363  0.06896327  0.25179191     0.75100
O55         O  0.48158074  0.18133662  0.21201355    -0.58700
C56         C  0.40645013  0.19292242  0.25059381     0.75100
C57         C  0.47004251  0.17409875  0.31146874     0.77500
Cd58       Cd  0.45330239  0.15078415  0.25095297     1.37500
O59         O  0.44510111  0.07868808  0.25594274    -0.57500
O60         O  0.45003867  0.15478826  0.30670524    -0.56300
C61         C  0.46793813  0.17120385  0.18907148     0.77400
O62         O  0.48265846  0.18380162  0.28769617    -0.58700
O63         O  0.48324401  0.09678683  0.24746395    -0.57100
O64         O  0.42781097  0.20933850  0.25240479    -0.57100
O65         O  0.44790967  0.15270259  0.19526277    -0.56300
O66         O  0.31402985  0.32048083  0.24698017    -0.57500
C67         C  0.25422567  0.40919131  0.24854554     0.75100
O68         O  0.23857966  0.29712718  0.20874313    -0.58700
C69         C  0.31381562  0.28331357  0.24619994     0.75100
C70         C  0.25048539  0.30605025  0.30800027     0.77500
Cd71       Cd  0.26760272  0.32697294  0.24717569     1.37500
O72         O  0.27723963  0.39886685  0.24949332    -0.57500
O73         O  0.27131267  0.32303334  0.30316163    -0.56300
C74         C  0.25180150  0.30706955  0.18553170     0.77400
O75         O  0.23754735  0.29695106  0.28421423    -0.58700
O76         O  0.23834317  0.38168997  0.24675592    -0.57100
O77         O  0.29232476  0.26710822  0.24605588    -0.57100
O78         O  0.27192017  0.32561793  0.19127640    -0.56300
O79         O  0.02416072  0.08008093  0.50049835    -0.57500
C80         C  0.06212345  0.19441088  0.99973752     0.75100
O81         O  0.48656690  0.18515819  0.46269863    -0.58700
C82         C  0.00125495  0.06975925  0.49733513     0.75100
C83         C  0.49941524  0.17064243  0.06165569     0.77500
Cd84       Cd  0.01518855  0.15191726  0.99986645     1.37500
O85         O  0.06187014  0.15726046  0.99852963    -0.57500
O86         O  0.01962323  0.15276100  0.05554789    -0.56300
C87         C  0.49960357  0.17601484  0.43912316     0.77400
O88         O  0.48592713  0.18070514  0.03861870    -0.58700
O89         O  0.04086042  0.21099439  0.00171742    -0.57100
O90         O  0.48532303  0.09711515  0.49565337    -0.57100
O91         O  0.01963915  0.15702004  0.44422844    -0.56300
O92         O  0.15618578  0.31989409  0.99722442    -0.57500
C93         C  0.21766310  0.40692510  0.49767215     0.75100
O94         O  0.23095784  0.29309138  0.03567016    -0.58700
C95         C  0.15595438  0.28275914  0.99867958     0.75100
C96         C  0.21921935  0.30458459  0.43570316     0.77500
Cd97       Cd  0.20286714  0.32517199  0.99720977     1.37500
O98         O  0.19447148  0.39735251  0.49684293    -0.57500
O99         O  0.19870336  0.32209093  0.44117727    -0.56300
C100        C  0.21834306  0.30501724  0.05883439     0.77400
O101        O  0.23231962  0.29508420  0.45921445    -0.58700
O102        O  0.23316468  0.37894159  0.49844014    -0.57100
O103        O  0.17727676  0.26616046  0.99896653    -0.57100
O104        O  0.19895603  0.32520976  0.05297408    -0.56300
C105        C  0.10872422  0.19895154  0.00684417    -0.26000
C106        C  0.08597673  0.21738256  0.99904401    -0.14100
C107        C  0.08634595  0.25751949  0.99111896     0.36500
C108        C  0.10929169  0.27823583  0.99180294    -0.25500
C109        C  0.13206278  0.25981810  0.99962648    -0.14700
C110        C  0.13168175  0.21962713  0.00746958     0.37600
N111        N  0.15448482  0.19986287  0.51636988    -0.89000
H112        H  0.10855252  0.16831494  0.51308673     0.18700
H113        H  0.10942969  0.30886158  0.98552780     0.18700
N114        N  0.06356279  0.27707405  0.98184357    -0.88000
H115        H  0.15104832  0.17021112  0.02034452     0.36100
H116        H  0.16038775  0.21170231  0.03754108     0.41200
H117        H  0.05770107  0.26474241  0.96083040     0.40800
H118        H  0.06702200  0.30662351  0.47743852     0.35700
C119        C  0.21766090  0.30053529  0.14662175    -0.26000
C120        C  0.24354547  0.29957079  0.15326407    -0.14100
C121        C  0.26083934  0.29451071  0.12858605     0.36500
C122        C  0.25200506  0.29333417  0.09799823    -0.25500
C123        C  0.22629013  0.29787545  0.09126013    -0.14700
C124        C  0.20881889  0.29985137  0.11591138     0.37600
N125        N  0.18220244  0.30211749  0.10968797    -0.89000
H126        H  0.20429967  0.30377675  0.16539428     0.18700
H127        H  0.26554294  0.29114740  0.07931683     0.18700
N128        N  0.28743262  0.29060566  0.13371353    -0.88000
H129        H  0.17200489  0.30410709  0.13032516     0.36100
H130        H  0.17680455  0.27589651  0.09910304     0.41200
H131        H  0.29044025  0.26787585  0.14947723     0.40800
H132        H  0.29449799  0.31656714  0.14299795     0.35700
C133        C  0.25988951  0.29425802  0.36366209    -0.26000
C134        C  0.24178408  0.29890228  0.34009868    -0.14100
C135        C  0.21603517  0.30067828  0.34807788     0.36500
C136        C  0.20912994  0.29975092  0.37949630    -0.25500
C137        C  0.22734261  0.29748404  0.40322262    -0.14700
C138        C  0.25298178  0.29317643  0.39510592     0.37600
N139        N  0.27207222  0.28996906  0.41868614    -0.89000
H140        H  0.27966112  0.29253409  0.35753137     0.18700
H141        H  0.18940215  0.30267142  0.38552749     0.18700
N142        N  0.19708147  0.30567403  0.32451089    -0.88000
H143        H  0.29004158  0.28935805  0.40880323     0.36100
H144        H  0.26960830  0.26296630  0.42955686     0.41200
H145        H  0.19963731  0.33337328  0.31482149     0.40800
H146        H  0.17905219  0.30558690  0.33424899     0.35700
C147        C  0.46579865  0.17762320  0.10122944    -0.26000
C148        C  0.49160185  0.17751866  0.09414876    -0.14100
C149        C  0.00936419  0.18127302  0.11862868     0.36500
C150        C  0.00107170  0.18211910  0.14935352    -0.25500
C151        C  0.47541533  0.17846591  0.15651404    -0.14700
C152        C  0.45748975  0.17795390  0.13214834     0.37600
N153        N  0.43094947  0.17707872  0.13886334    -0.89000
H154        H  0.45206349  0.17565450  0.08263890     0.18700
H155        H  0.01497451  0.18344383  0.16779256     0.18700
N156        N  0.03594087  0.18427802  0.11317112    -0.88000
H157        H  0.42034417  0.17647432  0.11839910     0.36100
H158        H  0.42648137  0.20322844  0.15011408     0.41200
H159        H  0.03914411  0.20699729  0.09749854     0.40800
H160        H  0.04246448  0.15807219  0.10377450     0.35700
C161        C  0.45966071  0.18625393  0.36664224    -0.26000
C162        C  0.47817496  0.18307575  0.34353986    -0.14100
C163        C  0.00386253  0.18397569  0.35208133     0.36500
C164        C  0.01036991  0.18499070  0.38366525    -0.25500
C165        C  0.49180317  0.18485653  0.40687136    -0.14700
C166        C  0.46616814  0.18742298  0.39822946     0.37600
N167        N  0.44676411  0.18840051  0.42139898    -0.89000
H168        H  0.43992051  0.18628968  0.36004230     0.18700
H169        H  0.03009484  0.18364902  0.39022893     0.18700
N170        N  0.02322791  0.18143431  0.32892612    -0.88000
H171        H  0.42889622  0.18765831  0.41110108     0.36100
H172        H  0.44814146  0.21530420  0.43279028     0.41200
H173        H  0.02210282  0.15364514  0.31891651     0.40800
H174        H  0.04110450  0.18347115  0.33910613     0.35700
C175        C  0.36038260  0.19877697  0.23937296    -0.26000
C176        C  0.38278665  0.21625140  0.24994584    -0.14100
C177        C  0.38240296  0.25610993  0.25886124     0.36500
C178        C  0.35986229  0.27746916  0.25648265    -0.25500
C179        C  0.33742738  0.25993057  0.24619867    -0.14700
C180        C  0.33777402  0.22012136  0.23722332     0.37600
N181        N  0.31532284  0.20153501  0.22555441    -0.89000
H182        H  0.36057397  0.16842895  0.23222698     0.18700
H183        H  0.35968620  0.30783697  0.26357984     0.18700
N184        N  0.40471445  0.27472636  0.27091541    -0.88000
H185        H  0.31867688  0.17209732  0.22060953     0.36100
H186        H  0.31075939  0.21485794  0.20448399     0.41200
H187        H  0.40896665  0.26150725  0.29212215     0.40800
H188        H  0.40133198  0.30419293  0.27573341     0.35700
C189        C  0.25941730  0.49818973  0.99410047    -0.26000
C190        C  0.24226189  0.52791972  0.50149106    -0.14100
C191        C  0.21678880  0.51760341  0.50736031     0.36500
C192        C  0.20919088  0.47819443  0.50532489    -0.25500
C193        C  0.22639545  0.44845668  0.49810858    -0.09900
C194        C  0.25184237  0.45879343  0.99215676     0.37600
N195        N  0.26994841  0.42944582  0.98372618    -0.89000
H196        H  0.27885243  0.50576692  0.98925374     0.18700
H197        H  0.18973619  0.47059557  0.51003893     0.18700
N198        N  0.19866455  0.54697269  0.51567096    -0.88000
H199        H  0.28783385  0.44178591  0.98076979     0.36100
H200        H  0.26458488  0.41826712  0.96212365     0.41200
H201        H  0.20374079  0.55772624  0.53751559     0.40800
H202        H  0.18069044  0.53475744  0.51806153     0.35700
C203        C  0.46419101  0.97550276  0.48261711    -0.26000
C204        C  0.47610923  0.94961878  0.50310036    -0.14100
C205        C  0.49672357  0.96347318  0.02121151     0.36500
C206        C  0.50518611  0.00211070  0.01740176    -0.25500
C207        C  0.49324618  0.02803499  0.49693180    -0.14700
C208        C  0.47272251  0.01407724  0.47869605     0.37600
N209        N  0.46056143  0.03740104  0.45528872    -0.89000
H210        H  0.44871729  0.96509459  0.46832170     0.18700
H211        H  0.02066239  0.01248307  0.03170814     0.18700
N212        N  0.50906990  0.93994850  0.04434449    -0.88000
H213        H  0.46148926  0.02194312  0.43439966     0.36100
H214        H  0.47045804  0.06313759  0.45105000     0.41200
H215        H  0.49950095  0.91380254  0.04814036     0.40800
H216        H  0.50797182  0.95494272  0.06543096     0.35700
C217        C  0.35989717  0.69860045  0.50460596    -0.26000
C218        C  0.33686610  0.71762829  0.99931915    -0.14100
C219        C  0.33695238  0.75865981  0.99478999     0.36500
C220        C  0.35990802  0.77935288  0.99588754    -0.25500
C221        C  0.38292299  0.76029240  0.00121771    -0.14700
C222        C  0.38280366  0.71933509  0.50600933     0.37600
N223        N  0.40582139  0.69877906  0.51265064    -0.89000
H224        H  0.36002906  0.66732676  0.50836738     0.18700
H225        H  0.35980756  0.81063202  0.99213620     0.18700
N226        N  0.31385071  0.77937284  0.98897771    -0.88000
H227        H  0.40254412  0.66874247  0.51440719     0.36100
H228        H  0.41208757  0.70798025  0.53448078     0.41200
H229        H  0.30724457  0.77068483  0.96717289     0.40800
H230        H  0.31712167  0.80945107  0.98760818     0.35700
C231        C  0.00651906  0.97602401  0.23832228    -0.26000
C232        C  0.49175233  0.94769213  0.25317408    -0.14100
C233        C  0.46924546  0.95958127  0.26810473     0.36500
C234        C  0.46193447  0.99915895  0.26721767    -0.25500
C235        C  0.47662596  0.02745555  0.25213852    -0.14700
C236        C  0.99938604  0.01563065  0.23774835     0.37600
N237        N  0.01498739  0.04353393  0.22190039    -0.89000
H238        H  0.02374520  0.96717834  0.22686486     0.18700
H239        H  0.44469910  0.00801318  0.27865083     0.18700
N240        N  0.45424562  0.93187299  0.28500774    -0.88000
H241        H  0.02961962  0.02948984  0.21016423     0.36100
H242        H  0.02366844  0.06093767  0.23878310     0.41200
H243        H  0.44519995  0.91390104  0.26881713     0.40800
H244        H  0.43988668  0.94606262  0.29714313     0.35700
C245        C  0.46655648  0.79409327  0.14967456    -0.26000
C246        C  0.49231586  0.79526636  0.15698883    -0.14100
C247        C  0.01020526  0.79195138  0.13277942     0.36500
C248        C  0.00200148  0.79099997  0.10193119    -0.25500
C249        C  0.47630857  0.79405613  0.09457520    -0.14700
C250        C  0.45833832  0.79358579  0.11869958     0.37600
N251        N  0.43181869  0.79390781  0.11164556    -0.89000
H252        H  0.45277214  0.79576643  0.16810731     0.18700
H253        H  0.01593353  0.79056744  0.08361345     0.18700
N254        N  0.03678566  0.78985773  0.13869075    -0.88000
H255        H  0.42114198  0.79497469  0.13193464     0.36100
H256        H  0.42748864  0.76739760  0.10075332     0.41200
H257        H  0.04013168  0.76745328  0.15460255     0.40800
H258        H  0.04293731  0.81634449  0.14810411     0.35700
C259        C  0.00974649  0.79640491  0.36768002    -0.26000
C260        C  0.49121579  0.79749951  0.34433684    -0.14100
C261        C  0.46552294  0.79654492  0.35270265     0.36500
C262        C  0.45900900  0.79655909  0.38424977    -0.25500
C263        C  0.47756160  0.79774355  0.40761274    -0.14700
C264        C  0.00323884  0.79619315  0.39921119     0.37600
N265        N  0.02265208  0.79675014  0.42254134    -0.89000
H266        H  0.02949139  0.79682354  0.36128013     0.18700
H267        H  0.43926542  0.79737032  0.39062445     0.18700
N268        N  0.44613756  0.79774321  0.32933817    -0.88000
H269        H  0.04049722  0.79815450  0.41238259     0.36100
H270        H  0.02185839  0.77003999  0.43421599     0.41200
H271        H  0.44722213  0.82495775  0.31844908     0.40800
H272        H  0.42826591  0.79625008  0.33943544     0.35700
C273        C  0.25270611  0.52110334  0.25238613    -0.26000
C274        C  0.22655064  0.52853557  0.25186385    -0.14100
C275        C  0.20979065  0.49645492  0.25049635     0.36500
C276        C  0.21948675  0.45824678  0.24918082    -0.25500
C277        C  0.24560539  0.45075094  0.24955160    -0.14700
C278        C  0.26241575  0.48278899  0.25118756     0.37600
N279        N  0.28922632  0.47658398  0.25170167    -0.89000
H280        H  0.26579370  0.54540225  0.25345109     0.18700
H281        H  0.20634869  0.43402138  0.24809190     0.18700
N282        N  0.18296704  0.50251461  0.25037343    -0.88000
H283        H  0.29884335  0.50311379  0.25410116     0.36100
H284        H  0.29434367  0.46532468  0.23009237     0.41200
H285        H  0.17803588  0.51342973  0.27216297     0.40800
H286        H  0.17336106  0.47599922  0.24783827     0.35700
C287        C  0.21832752  0.67735374  0.10286118    -0.26000
C288        C  0.24419410  0.67799074  0.09628032    -0.14100
C289        C  0.26163544  0.68160667  0.12114544     0.36500
C290        C  0.25289795  0.68212235  0.15173770    -0.25500
C291        C  0.22711679  0.67849575  0.15828726    -0.14700
C292        C  0.20958528  0.67752219  0.13353742     0.37600
N293        N  0.18296130  0.67578606  0.13962682    -0.89000
H294        H  0.20486106  0.67483709  0.08401761     0.18700
H295        H  0.26650522  0.68315050  0.17052269     0.18700
N296        N  0.28828590  0.68446655  0.11622909    -0.88000
H297        H  0.17268287  0.67404945  0.11897139     0.36100
H298        H  0.17789598  0.70209829  0.15025786     0.41200
H299        H  0.29176439  0.70750754  0.10095013     0.40800
H300        H  0.29475444  0.65844907  0.10646602     0.35700
C301        C  0.25035610  0.68383241  0.35315773    -0.26000
C302        C  0.22467131  0.67925590  0.34616430    -0.14100
C303        C  0.20704270  0.67736463  0.37068318     0.36500
C304        C  0.21572819  0.67667208  0.40149604    -0.25500
C305        C  0.24158465  0.67762387  0.40829927    -0.14700
C306        C  0.25900272  0.68271406  0.38380155     0.37600
N307        N  0.28555280  0.68690476  0.38923415    -0.89000
H308        H  0.26402584  0.68611071  0.33463170     0.18700
H309        H  0.20230021  0.67345451  0.42019917     0.18700
N310        N  0.18044992  0.67521619  0.36423672    -0.88000
H311        H  0.29260103  0.66109862  0.39861129     0.36100
H312        H  0.28836990  0.70968614  0.40511992     0.41200
H313        H  0.17525474  0.70131394  0.35342476     0.40800
H314        H  0.17013079  0.67366317  0.38480448     0.35700
C315        C  0.10914760  0.69869739  0.24130137    -0.26000
C316        C  0.13168634  0.71662530  0.25090339    -0.14100
C317        C  0.13116825  0.75640401  0.26001585     0.36500
C318        C  0.10829590  0.77715165  0.25906023    -0.25500
C319        C  0.08573562  0.75919015  0.24963832    -0.14700
C320        C  0.08627101  0.71949661  0.24027607     0.37600
N321        N  0.06372632  0.70044087  0.22936667    -0.89000
H322        H  0.10942867  0.66839534  0.23403617     0.18700
H323        H  0.10802956  0.80743530  0.26636972     0.18700
N324        N  0.15371686  0.77556898  0.27078023    -0.88000
H325        H  0.06730251  0.67122631  0.22386235     0.36100
H326        H  0.05837429  0.71401590  0.20867858     0.41200
H327        H  0.15900338  0.76233153  0.29162666     0.40800
H328        H  0.15018020  0.80489593  0.27594937     0.35700
O329        O  0.15567366  0.65642533  0.75023362    -0.57500
C330        C  0.21756863  0.56993474  0.75214308     0.75100
O331        O  0.23153814  0.68293341  0.71400263    -0.58700
C332        C  0.15550804  0.69360480  0.75089136     0.75100
C333        C  0.21698759  0.67215238  0.81358320     0.77500
Cd334      Cd  0.20245416  0.65141860  0.75167770     1.37500
O335        O  0.19442585  0.57948711  0.75069059    -0.57500
O336        O  0.19710476  0.65319306  0.80731097    -0.56300
C337        C  0.21895446  0.67138136  0.69057391     0.77400
O338        O  0.23039364  0.68275085  0.79069155    -0.58700
O339        O  0.23308460  0.59798555  0.75359960    -0.57100
O340        O  0.17685771  0.71023727  0.75142839    -0.57100
O341        O  0.19923004  0.65177613  0.69601626    -0.56300
O342        O  0.06172481  0.81923635  0.75225892    -0.57500
C343        C  0.00017660  0.90612015  0.75256008     0.75100
O344        O  0.48718478  0.79170440  0.71246401    -0.58700
C345        C  0.06189536  0.78212817  0.75030746     0.75100
C346        C  0.49928407  0.80413047  0.81196651     0.77500
Cd347      Cd  0.01507810  0.82450236  0.75088364     1.37500
O348        O  0.02312011  0.89648968  0.74875483    -0.57500
O349        O  0.01957736  0.82234013  0.80646886    -0.56300
C350        C  0.49986559  0.80357034  0.68935255     0.77400
O351        O  0.48629979  0.79342062  0.78861297    -0.58700
O352        O  0.48471011  0.87821126  0.75530349    -0.57100
O353        O  0.04055331  0.76553275  0.74923872    -0.57100
O354        O  0.01884058  0.82473830  0.69522101    -0.56300
O355        O  0.40688392  0.82068193  0.50067714    -0.57500
C356        C  0.46794625  0.90801212  0.00285413     0.75100
O357        O  0.48170471  0.79265883  0.53899440    -0.58700
C358        C  0.40674670  0.78349549  0.50109688     0.75100
C359        C  0.46960364  0.80544145  0.93994660     0.77500
Cd360      Cd  0.45360359  0.82608150  0.50121886     1.37500
O361        O  0.44488690  0.89794169  0.00129572    -0.57500
O362        O  0.44902845  0.82278825  0.94534849    -0.56300
C363        C  0.46873499  0.80297664  0.56232481     0.77400
O364        O  0.48294145  0.79652291  0.96338772    -0.58700
O365        O  0.48385150  0.88053921  0.00312613    -0.57100
O366        O  0.42811898  0.76708164  0.50118395    -0.57100
O367        O  0.44929222  0.82323656  0.55688498    -0.56300
O368        O  0.31312748  0.65706236  0.50049569    -0.57500
C369        C  0.25113454  0.56939427  0.00196078     0.75100
O370        O  0.23891985  0.68208456  0.54080920    -0.58700
C371        C  0.31309592  0.69424981  0.49978302     0.75100
C372        C  0.24988204  0.67012446  0.94049095     0.77500
Cd373      Cd  0.26651699  0.65079738  0.50176833     1.37500
O374        O  0.27437872  0.57870317  0.00117227    -0.57500
O375        O  0.26913739  0.64948732  0.94593997    -0.56300
C376        C  0.25214469  0.67110021  0.56383845     0.77400
O377        O  0.23770994  0.68243121  0.96389156    -0.58700
O378        O  0.23575618  0.59756013  0.00274985    -0.57100
O379        O  0.29164368  0.71042572  0.49998453    -0.57100
O380        O  0.27183165  0.65180504  0.55773133    -0.56300
O381        O  0.40651275  0.15578453  0.74893152    -0.57500
C382        C  0.46798350  0.06896300  0.75179195     0.75100
O383        O  0.48158050  0.18133612  0.71201356    -0.58700
C384        C  0.40645009  0.19292213  0.75059379     0.75100
C385        C  0.47004231  0.17409848  0.81146886     0.77500
Cd386      Cd  0.45330226  0.15078374  0.75095305     1.37500
O387        O  0.44510100  0.07868779  0.75594293    -0.57500
O388        O  0.45003858  0.15478769  0.80670537    -0.56300
C389        C  0.46793803  0.17120305  0.68907145     0.77400
O390        O  0.48265818  0.18380158  0.78769628    -0.58700
O391        O  0.48324388  0.09678654  0.74746393    -0.57100
O392        O  0.42781093  0.20933822  0.75240476    -0.57100
O393        O  0.44790967  0.15270147  0.69526269    -0.56300
O394        O  0.31402980  0.32048073  0.74697989    -0.57500
C395        C  0.25422570  0.40919151  0.74854526     0.75100
O396        O  0.23857962  0.29712720  0.70874304    -0.58700
C397        C  0.31381555  0.28331346  0.74619979     0.75100
C398        C  0.25048532  0.30605036  0.80800026     0.77500
Cd399      Cd  0.26760264  0.32697310  0.74717554     1.37500
O400        O  0.27723964  0.39886701  0.74949333    -0.57500
O401        O  0.27131272  0.32303311  0.80316158    -0.56300
C402        C  0.25180145  0.30706964  0.68553162     0.77400
O403        O  0.23754715  0.29695162  0.78421421    -0.58700
O404        O  0.23834319  0.38169023  0.74675525    -0.57100
O405        O  0.29232466  0.26710818  0.74605579    -0.57100
O406        O  0.27192006  0.32561816  0.69127633    -0.56300
O407        O  0.02416067  0.08008057  0.00049771    -0.57500
C408        C  0.06212356  0.19441098  0.49973755     0.75100
O409        O  0.48656689  0.18515803  0.96269864    -0.58700
C410        C  0.00125488  0.06975889  0.99733479     0.75100
C411        C  0.49941526  0.17064276  0.56165566     0.77500
Cd412      Cd  0.01518858  0.15191756  0.49986652     1.37500
O413        O  0.06187024  0.15726055  0.49852988    -0.57500
O414        O  0.01962329  0.15276151  0.55554782    -0.56300
C415        C  0.49960360  0.17601488  0.93912315     0.77400
O416        O  0.48592715  0.18070547  0.53861867    -0.58700
O417        O  0.04086054  0.21099453  0.50171718    -0.57100
O418        O  0.48532296  0.09711470  0.99565331    -0.57100
O419        O  0.01963922  0.15702013  0.94422837    -0.56300
O420        O  0.15618578  0.31989404  0.49722405    -0.57500
C421        C  0.21766335  0.40692498  0.99767137     0.75100
O422        O  0.23095795  0.29309145  0.53566999    -0.58700
C423        C  0.15595447  0.28275910  0.49867921     0.75100
C424        C  0.21921935  0.30458429  0.93570330     0.77500
Cd425      Cd  0.20286705  0.32517202  0.49720968     1.37500
O426        O  0.19447173  0.39735243  0.99684181    -0.57500
O427        O  0.19870327  0.32209034  0.94117746    -0.56300
C428        C  0.21834299  0.30501682  0.55883421     0.77400
O429        O  0.23231974  0.29508418  0.95921457    -0.58700
O430        O  0.23316490  0.37894146  0.99843990    -0.57100
O431        O  0.17727685  0.26616046  0.49896617    -0.57100
O432        O  0.19895573  0.32520881  0.55297387    -0.56300
C433        C  0.10872434  0.19895164  0.50684433    -0.26000
C434        C  0.08597686  0.21738262  0.49904404    -0.14100
C435        C  0.08634611  0.25751949  0.49111884     0.36500
C436        C  0.10929186  0.27823577  0.49180266    -0.25500
C437        C  0.13206293  0.25981803  0.49962619    -0.14700
C438        C  0.13168190  0.21962716  0.50746952     0.37600
N439        N  0.15448469  0.19986285  0.01636987    -0.89000
H440        H  0.10855242  0.16831476  0.01308636     0.18700
H441        H  0.10942986  0.30886149  0.48552745     0.18700
N442        N  0.06356297  0.27707411  0.48184351    -0.88000
H443        H  0.15104843  0.17021132  0.52034485     0.36100
H444        H  0.16038800  0.21170269  0.53754101     0.41200
H445        H  0.05770116  0.26474239  0.46083038     0.40800
H446        H  0.06702180  0.30662349  0.97743866     0.35700
C447        C  0.21766089  0.30053561  0.64662166    -0.26000
C448        C  0.24354545  0.29957086  0.65326398    -0.14100
C449        C  0.26083931  0.29451066  0.62858595     0.36500
C450        C  0.25200503  0.29333395  0.59799813    -0.25500
C451        C  0.22629010  0.29787523  0.59126001    -0.14700
C452        C  0.20881888  0.29985149  0.61591129     0.37600
N453        N  0.18220243  0.30211749  0.60968793    -0.89000
H454        H  0.20429967  0.30377727  0.66539419     0.18700
H455        H  0.26554290  0.29114698  0.57931674     0.18700
N456        N  0.28743260  0.29060566  0.63371343    -0.88000
H457        H  0.17200489  0.30410704  0.63032508     0.36100
H458        H  0.17680460  0.27589637  0.59910303     0.41200
H459        H  0.29044026  0.26787577  0.64947701     0.40800
H460        H  0.29449793  0.31656711  0.64299796     0.35700
C461        C  0.25988947  0.29425798  0.86366213    -0.26000
C462        C  0.24178403  0.29890232  0.84009872    -0.14100
C463        C  0.21603514  0.30067837  0.84807801     0.36500
C464        C  0.20912992  0.29975091  0.87949643    -0.25500
C465        C  0.22734259  0.29748382  0.90322273    -0.14700
C466        C  0.25298174  0.29317617  0.89510597     0.37600
N467        N  0.27207218  0.28996845  0.91868616    -0.89000
H468        H  0.27966108  0.29253409  0.85753141     0.18700
H469        H  0.18940215  0.30267149  0.88552767     0.18700
N470        N  0.19708140  0.30567429  0.82451109    -0.88000
H471        H  0.29004152  0.28935776  0.90880330     0.36100
H472        H  0.26960828  0.26296539  0.92955654     0.41200
H473        H  0.19963743  0.33337344  0.81482158     0.40800
H474        H  0.17905220  0.30558758  0.83424928     0.35700
C475        C  0.46579862  0.17762346  0.60122940    -0.26000
C476        C  0.49160183  0.17751871  0.59414875    -0.14100
C477        C  0.00936417  0.18127251  0.61862873     0.36500
C478        C  0.00107164  0.18211827  0.64935355    -0.25500
C479        C  0.47541528  0.17846523  0.65651403    -0.14700
C480        C  0.45748972  0.17795373  0.63214831     0.37600
N481        N  0.43094944  0.17707875  0.63886331    -0.89000
H482        H  0.45206345  0.17565528  0.58263884     0.18700
H483        H  0.01497443  0.18344260  0.66779262     0.18700
N484        N  0.03594088  0.18427743  0.61317122    -0.88000
H485        H  0.42034413  0.17647469  0.61839904     0.36100
H486        H  0.42648145  0.20322839  0.65011424     0.41200
H487        H  0.03914418  0.20699675  0.59749879     0.40800
H488        H  0.04246446  0.15807165  0.60377447     0.35700
C489        C  0.45966056  0.18625371  0.86664239    -0.26000
C490        C  0.47817477  0.18307556  0.84353997    -0.14100
C491        C  0.00386241  0.18397591  0.85208128     0.36500
C492        C  0.01036986  0.18499084  0.88366518    -0.25500
C493        C  0.49180316  0.18485666  0.90687139    -0.14700
C494        C  0.46616810  0.18742310  0.89822958     0.37600
N495        N  0.44676415  0.18840082  0.92139918    -0.89000
H496        H  0.43992035  0.18628926  0.86004253     0.18700
H497        H  0.03009481  0.18364922  0.89022877     0.18700
N498        N  0.02322774  0.18143518  0.82892597    -0.88000
H499        H  0.42889624  0.18765854  0.91110134     0.36100
H500        H  0.44814153  0.21530457  0.93279037     0.41200
H501        H  0.02210293  0.15364605  0.81891626     0.40800
H502        H  0.04110435  0.18347250  0.83910587     0.35700
C503        C  0.36038253  0.19877674  0.73937297    -0.26000
C504        C  0.38278660  0.21625112  0.74994587    -0.14100
C505        C  0.38240292  0.25610964  0.75886134     0.36500
C506        C  0.35986227  0.27746893  0.75648267    -0.25500
C507        C  0.33742734  0.25993041  0.74619861    -0.14700
C508        C  0.33777397  0.22012120  0.73722327     0.37600
N509        N  0.31532281  0.20153496  0.72555416    -0.89000
H510        H  0.36057388  0.16842874  0.73222694     0.18700
H511        H  0.35968622  0.30783675  0.76357982     0.18700
N512        N  0.40471443  0.27472600  0.77091558    -0.88000
H513        H  0.31867679  0.17209727  0.72060928     0.36100
H514        H  0.31075955  0.21485794  0.70448371     0.41200
H515        H  0.40896672  0.26150675  0.79212220     0.40800
H516        H  0.40133193  0.30419257  0.77573379     0.35700
C517        C  0.25941702  0.49818991  0.49410064    -0.26000
C518        C  0.24226208  0.52791948  0.00149074    -0.14100
C519        C  0.21678895  0.51760312  0.00735967     0.36500
C520        C  0.20919104  0.47819422  0.00532379    -0.25500
C521        C  0.22639570  0.44845651  0.99810779    -0.09900
C522        C  0.25184203  0.45879363  0.49215692     0.37600
N523        N  0.26994793  0.42944607  0.48372573    -0.89000
H524        H  0.27885210  0.50576709  0.48925364     0.18700
H525        H  0.18973629  0.47059535  0.01003745     0.18700
N526        N  0.19866469  0.54697220  0.01567071    -0.88000
H527        H  0.28783325  0.44178623  0.48076861     0.36100
H528        H  0.26458390  0.41826718  0.46212342     0.41200
H529        H  0.20374090  0.55772514  0.03751557     0.40800
H530        H  0.18069058  0.53475692  0.01806107     0.35700
C531        C  0.46419094  0.97550232  0.98261713    -0.26000
C532        C  0.47610924  0.94961847  0.00310041    -0.14100
C533        C  0.49672359  0.96347338  0.52121146     0.36500
C534        C  0.50518607  0.00211096  0.51740192    -0.25500
C535        C  0.49324619  0.02803458  0.99693153    -0.14700
C536        C  0.47272239  0.01407680  0.97869600     0.37600
N537        N  0.46056109  0.03740061  0.95528886    -0.89000
H538        H  0.44871719  0.96509411  0.96832179     0.18700
H539        H  0.02066240  0.01248318  0.53170839     0.18700
N540        N  0.50907001  0.93994850  0.54434425    -0.88000
H541        H  0.46148879  0.02194272  0.93439976     0.36100
H542        H  0.47045759  0.06313719  0.95105006     0.41200
H543        H  0.49950120  0.91380251  0.54813994     0.40800
H544        H  0.50797187  0.95494250  0.56543088     0.35700
C545        C  0.35989725  0.69860049  0.00460582    -0.26000
C546        C  0.33686605  0.71762824  0.49931902    -0.14100
C547        C  0.33695238  0.75865976  0.49478979     0.36500
C548        C  0.35990800  0.77935281  0.49588744    -0.25500
C549        C  0.38292294  0.76029235  0.50121784    -0.14700
C550        C  0.38280375  0.71933512  0.00600909     0.37600
N551        N  0.40582150  0.69877905  0.01265022    -0.89000
H552        H  0.36002919  0.66732677  0.00836711     0.18700
H553        H  0.35980758  0.81063194  0.49213601     0.18700
N554        N  0.31385072  0.77937281  0.48897753    -0.88000
H555        H  0.40254431  0.66874246  0.01440650     0.36100
H556        H  0.41208766  0.70797995  0.03448049     0.41200
H557        H  0.30724473  0.77068517  0.46717264     0.40800
H558        H  0.31712168  0.80945113  0.48760839     0.35700
C559        C  0.00651867  0.97602371  0.73832199    -0.26000
C560        C  0.49175211  0.94769193  0.75317408    -0.14100
C561        C  0.46924540  0.95958114  0.76810501     0.36500
C562        C  0.46193446  0.99915882  0.76721796    -0.25500
C563        C  0.47662582  0.02745532  0.75213852    -0.14700
C564        C  0.99938573  0.01563034  0.73774806     0.37600
N565        N  0.01498703  0.04353348  0.72189988    -0.89000
H566        H  0.02374470  0.96717791  0.72686437     0.18700
H567        H  0.44469921  0.00801312  0.77865135     0.18700
N568        N  0.45424565  0.93187293  0.78500821    -0.88000
H569        H  0.02961928  0.02948936  0.71016387     0.36100
H570        H  0.02366809  0.06093746  0.73878251     0.41200
H571        H  0.44519981  0.91390103  0.76881765     0.40800
H572        H  0.43988685  0.94606257  0.79714377     0.35700
C573        C  0.46655664  0.79409366  0.64967475    -0.26000
C574        C  0.49231602  0.79526667  0.65698894    -0.14100
C575        C  0.01020538  0.79195145  0.63277950     0.36500
C576        C  0.00200153  0.79099993  0.60193130    -0.25500
C577        C  0.47630860  0.79405615  0.59457536    -0.14700
C578        C  0.45833840  0.79358603  0.61869981     0.37600
N579        N  0.43181875  0.79390812  0.61164592    -0.89000
H580        H  0.45277236  0.79576702  0.66810755     0.18700
H581        H  0.01593356  0.79056728  0.58361355     0.18700
N582        N  0.03678579  0.78985779  0.63869077    -0.88000
H583        H  0.42114211  0.79497481  0.63193503     0.36100
H584        H  0.42748866  0.76739792  0.60075359     0.41200
H585        H  0.04013183  0.76745355  0.65460272     0.40800
H586        H  0.04293747  0.81634467  0.64810398     0.35700
C587        C  0.00974656  0.79640537  0.86767990    -0.26000
C588        C  0.49121580  0.79749973  0.84433674    -0.14100
C589        C  0.46552296  0.79654485  0.85270258     0.36500
C590        C  0.45900907  0.79655900  0.88424972    -0.25500
C591        C  0.47756172  0.79774348  0.90761265    -0.14700
C592        C  0.00323895  0.79619328  0.89921107     0.37600
N593        N  0.02265224  0.79675023  0.92254117    -0.89000
H594        H  0.02949145  0.79682433  0.86127999     0.18700
H595        H  0.43926551  0.79737016  0.89062444     0.18700
N596        N  0.44613757  0.79774294  0.82933812    -0.88000
H597        H  0.04049732  0.79815500  0.91238239     0.36100
H598        H  0.02185873  0.77003989  0.93421557     0.41200
H599        H  0.44722209  0.82495746  0.81844899     0.40800
H600        H  0.42826591  0.79624976  0.83943540     0.35700
C601        C  0.25270611  0.52110346  0.75238662    -0.26000
C602        C  0.22655064  0.52853569  0.75186413    -0.14100
C603        C  0.20979065  0.49645506  0.75049655     0.36500
C604        C  0.21948678  0.45824695  0.74918082    -0.25500
C605        C  0.24560542  0.45075112  0.74955155    -0.14700
C606        C  0.26241577  0.48278915  0.75118777     0.37600
N607        N  0.28922634  0.47658403  0.75170167    -0.89000
H608        H  0.26579371  0.54540236  0.75345179     0.18700
H609        H  0.20634873  0.43402156  0.74809171     0.18700
N610        N  0.18296702  0.50251473  0.75037366    -0.88000
H611        H  0.29884343  0.50311392  0.75410155     0.36100
H612        H  0.29434363  0.46532528  0.73009232     0.41200
H613        H  0.17803589  0.51343038  0.77216306     0.40800
H614        H  0.17336103  0.47599927  0.74783897     0.35700
C615        C  0.21832763  0.67735352  0.60286105    -0.26000
C616        C  0.24419418  0.67799071  0.59628015    -0.14100
C617        C  0.26163555  0.68160623  0.62114528     0.36500
C618        C  0.25289809  0.68212183  0.65173754    -0.25500
C619        C  0.22711692  0.67849566  0.65828713    -0.14700
C620        C  0.20958540  0.67752188  0.63353727     0.37600
N621        N  0.18296145  0.67578519  0.63962667    -0.89000
H622        H  0.20486116  0.67483682  0.58401748     0.18700
H623        H  0.26650539  0.68314966  0.67052251     0.18700
N624        N  0.28828602  0.68446600  0.61622894    -0.88000
H625        H  0.17268301  0.67404709  0.61897116     0.36100
H626        H  0.17789579  0.70209761  0.65025689     0.41200
H627        H  0.29176460  0.70750726  0.60095028     0.40800
H628        H  0.29475452  0.65844866  0.60646564     0.35700
C629        C  0.25035599  0.68383283  0.85315789    -0.26000
C630        C  0.22467124  0.67925602  0.84616434    -0.14100
C631        C  0.20704258  0.67736465  0.87068315     0.36500
C632        C  0.21572800  0.67667200  0.90149608    -0.25500
C633        C  0.24158445  0.67762421  0.90829944    -0.14700
C634        C  0.25900256  0.68271451  0.88380176     0.37600
N635        N  0.28555268  0.68690465  0.88923438    -0.89000
H636        H  0.26402578  0.68611114  0.83463189     0.18700
H637        H  0.20230001  0.67345383  0.92019913     0.18700
N638        N  0.18044982  0.67521625  0.86423653    -0.88000
H639        H  0.29260061  0.66109837  0.89861165     0.36100
H640        H  0.28837003  0.70968605  0.90512005     0.41200
H641        H  0.17525487  0.70131332  0.85342327     0.40800
H642        H  0.17013058  0.67366509  0.88480426     0.35700
C643        C  0.10914772  0.69869750  0.74130113    -0.26000
C644        C  0.13168647  0.71662537  0.75090317    -0.14100
C645        C  0.13116839  0.75640407  0.76001568     0.36500
C646        C  0.10829604  0.77715176  0.75906006    -0.25500
C647        C  0.08573573  0.75919024  0.74963824    -0.14700
C648        C  0.08627111  0.71949668  0.74027603     0.37600
N649        N  0.06372639  0.70044074  0.72936693    -0.89000
H650        H  0.10942879  0.66839549  0.73403587     0.18700
H651        H  0.10802974  0.80743543  0.76636949     0.18700
N652        N  0.15371705  0.77556905  0.77077993    -0.88000
H653        H  0.06730258  0.67122627  0.72386266     0.36100
H654        H  0.05837419  0.71401567  0.70867880     0.41200
H655        H  0.15900355  0.76233179  0.79162644     0.40800
H656        H  0.15018048  0.80489606  0.77594886     0.35700
O657        O  0.65567356  0.65642533  0.25023455    -0.57500
C658        C  0.71756865  0.56993464  0.25214297     0.75100
O659        O  0.73153783  0.68293372  0.21400273    -0.58700
C660        C  0.65550792  0.69360480  0.25089156     0.75100
C661        C  0.71698764  0.67215229  0.31358321     0.77500
Cd662      Cd  0.70245407  0.65141855  0.25167781     1.37500
O663        O  0.69442586  0.57948701  0.25069081    -0.57500
O664        O  0.69710474  0.65319316  0.30731103    -0.56300
C665        C  0.71895429  0.67138136  0.19057401     0.77400
O666        O  0.73039372  0.68275057  0.29069153    -0.58700
O667        O  0.73308462  0.59798548  0.25359938    -0.57100
O668        O  0.67685758  0.71023733  0.25142778    -0.57100
O669        O  0.69922998  0.65177578  0.19601633    -0.56300
O670        O  0.56172474  0.81923624  0.25225898    -0.57500
C671        C  0.50017674  0.90612023  0.25255996     0.75100
O672        O  0.98718468  0.79170390  0.21246396    -0.58700
C673        C  0.56189528  0.78212807  0.25030737     0.75100
C674        C  0.99928405  0.80413011  0.31196656     0.77500
Cd675      Cd  0.51507800  0.82450221  0.25088354     1.37500
O676        O  0.52312024  0.89648957  0.24875490    -0.57500
O677        O  0.51957739  0.82233953  0.30646885    -0.56300
C678        C  0.99986541  0.80356998  0.18935247     0.77400
O679        O  0.98629967  0.79342051  0.28861303    -0.58700
O680        O  0.98471018  0.87821146  0.25530309    -0.57100
O681        O  0.54055322  0.76553269  0.24923834    -0.57100
O682        O  0.51884033  0.82473809  0.19522091    -0.56300
O683        O  0.90688405  0.82068193  0.00067654    -0.57500
C684        C  0.96794616  0.90801244  0.50285405     0.75100
O685        O  0.98170468  0.79265851  0.03899429    -0.58700
C686        C  0.90674679  0.78349549  0.00109673     0.75100
C687        C  0.96960347  0.80544172  0.43994668     0.77500
Cd688      Cd  0.95360371  0.82608125  0.00121871     1.37500
O689        O  0.94488678  0.89794207  0.50129576    -0.57500
O690        O  0.94902815  0.82278820  0.44534853    -0.56300
C691        C  0.96873498  0.80297655  0.06232466     0.77400
O692        O  0.98294138  0.79652366  0.46338782    -0.58700
O693        O  0.98385136  0.88053947  0.50312593    -0.57100
O694        O  0.92811905  0.76708160  0.00118424    -0.57100
O695        O  0.94929227  0.82323660  0.05688478    -0.56300
O696        O  0.81312758  0.65706235  0.00049553    -0.57500
C697        C  0.75113437  0.56939449  0.50196072     0.75100
O698        O  0.73891989  0.68208407  0.04080936    -0.58700
C699        C  0.81309599  0.69424981  0.99978317     0.75100
C700        C  0.74988223  0.67012448  0.44049079     0.77500
Cd701      Cd  0.76651708  0.65079713  0.00176850     1.37500
O702        O  0.77437856  0.57870336  0.50117249    -0.57500
O703        O  0.76913809  0.64948855  0.44593996    -0.56300
C704        C  0.75214471  0.67109988  0.06383867     0.77400
O705        O  0.73770960  0.68243038  0.46389127    -0.58700
O706        O  0.73575601  0.59756038  0.50274919    -0.57100
O707        O  0.79164373  0.71042564  0.99998498    -0.57100
O708        O  0.77183169  0.65180468  0.05773165    -0.56300
O709        O  0.90651289  0.15578478  0.24893153    -0.57500
C710        C  0.96798363  0.06896326  0.25179190     0.75100
O711        O  0.98158080  0.18133643  0.21201354    -0.58700
C712        C  0.90645018  0.19292239  0.25059381     0.75100
C713        C  0.97004251  0.17409876  0.31146874     0.77500
Cd714      Cd  0.95330245  0.15078414  0.25095297     1.37500
O715        O  0.94510112  0.07868809  0.25594274    -0.57500
O716        O  0.95003867  0.15478825  0.30670523    -0.56300
C717        C  0.96793816  0.17120379  0.18907148     0.77400
O718        O  0.98265847  0.18380163  0.28769618    -0.58700
O719        O  0.98324402  0.09678681  0.24746396    -0.57100
O720        O  0.92781100  0.20933853  0.25240479    -0.57100
O721        O  0.94790965  0.15270261  0.19526276    -0.56300
O722        O  0.81402985  0.32048083  0.24698017    -0.57500
C723        C  0.75422566  0.40919131  0.24854554     0.75100
O724        O  0.73857968  0.29712716  0.20874313    -0.58700
C725        C  0.81381563  0.28331357  0.24619993     0.75100
C726        C  0.75048537  0.30605024  0.30800027     0.77500
Cd727      Cd  0.76760271  0.32697295  0.24717569     1.37500
O728        O  0.77723961  0.39886685  0.24949332    -0.57500
O729        O  0.77131265  0.32303335  0.30316164    -0.56300
C730        C  0.75180149  0.30706962  0.18553170     0.77400
O731        O  0.73754733  0.29695107  0.28421422    -0.58700
O732        O  0.73834315  0.38168997  0.24675592    -0.57100
O733        O  0.79232477  0.26710822  0.24605587    -0.57100
O734        O  0.77192011  0.32561813  0.19127639    -0.56300
O735        O  0.52416067  0.08008094  0.50049834    -0.57500
C736        C  0.56212343  0.19441089  0.99973759     0.75100
O737        O  0.98656687  0.18515818  0.46269861    -0.58700
C738        C  0.50125489  0.06975930  0.49733515     0.75100
C739        C  0.99941528  0.17064243  0.06165569     0.77500
Cd740      Cd  0.51518853  0.15191726  0.99986647     1.37500
O741        O  0.56187013  0.15726046  0.99852982    -0.57500
O742        O  0.51962319  0.15276104  0.05554787    -0.56300
C743        C  0.99960356  0.17601484  0.43912316     0.77400
O744        O  0.98592720  0.18070520  0.03861869    -0.58700
O745        O  0.54086041  0.21099440  0.00171739    -0.57100
O746        O  0.98532307  0.09711508  0.49565335    -0.57100
O747        O  0.51963916  0.15702003  0.44422843    -0.56300
O748        O  0.65618576  0.31989409  0.99722440    -0.57500
C749        C  0.71766310  0.40692510  0.49767216     0.75100
O750        O  0.73095782  0.29309139  0.03567014    -0.58700
C751        C  0.65595437  0.28275914  0.99867958     0.75100
C752        C  0.71921931  0.30458466  0.43570314     0.77500
Cd753      Cd  0.70286713  0.32517200  0.99720971     1.37500
O754        O  0.69447148  0.39735250  0.49684293    -0.57500
O755        O  0.69870337  0.32209117  0.44117725    -0.56300
C756        C  0.71834305  0.30501724  0.05883436     0.77400
O757        O  0.73231952  0.29508411  0.45921445    -0.58700
O758        O  0.73316469  0.37894161  0.49844015    -0.57100
O759        O  0.67727675  0.26616046  0.99896652    -0.57100
O760        O  0.69895601  0.32520976  0.05297404    -0.56300
C761        C  0.60872420  0.19895157  0.00684428    -0.26000
C762        C  0.58597671  0.21738256  0.99904406    -0.14100
C763        C  0.58634594  0.25751948  0.99111896     0.36500
C764        C  0.60929168  0.27823583  0.99180294    -0.25500
C765        C  0.63206277  0.25981810  0.99962648    -0.14700
C766        C  0.63168173  0.21962714  0.00746962     0.37600
N767        N  0.65448482  0.19986291  0.51637004    -0.89000
H768        H  0.60855255  0.16831491  0.51308676     0.18700
H769        H  0.60942968  0.30886157  0.98552780     0.18700
N770        N  0.56356278  0.27707404  0.98184357    -0.88000
H771        H  0.65104831  0.17021113  0.02034453     0.36100
H772        H  0.66038776  0.21170231  0.03754107     0.41200
H773        H  0.55770106  0.26474240  0.96083040     0.40800
H774        H  0.56702200  0.30662347  0.47743854     0.35700
C775        C  0.71766089  0.30053528  0.14662175    -0.26000
C776        C  0.74354546  0.29957082  0.15326407    -0.14100
C777        C  0.76083933  0.29451076  0.12858606     0.36500
C778        C  0.75200505  0.29333418  0.09799823    -0.25500
C779        C  0.72629012  0.29787544  0.09126012    -0.14700
C780        C  0.70881888  0.29985137  0.11591138     0.37600
N781        N  0.68220243  0.30211749  0.10968797    -0.89000
H782        H  0.70429966  0.30377674  0.16539429     0.18700
H783        H  0.76554293  0.29114742  0.07931684     0.18700
N784        N  0.78743263  0.29060590  0.13371353    -0.88000
H785        H  0.67200488  0.30410709  0.13032516     0.36100
H786        H  0.67680454  0.27589651  0.09910304     0.41200
H787        H  0.79044034  0.26787608  0.14947728     0.40800
H788        H  0.79449791  0.31656736  0.14299800     0.35700
C789        C  0.75988950  0.29425801  0.36366209    -0.26000
C790        C  0.74178407  0.29890222  0.34009868    -0.14100
C791        C  0.71603516  0.30067816  0.34807788     0.36500
C792        C  0.70912992  0.29975087  0.37949629    -0.25500
C793        C  0.72734258  0.29748404  0.40322262    -0.14700
C794        C  0.75298176  0.29317643  0.39510592     0.37600
N795        N  0.77207220  0.28996907  0.41868615    -0.89000
H796        H  0.77966111  0.29253413  0.35753138     0.18700
H797        H  0.68940214  0.30267143  0.38552748     0.18700
N798        N  0.69708146  0.30567399  0.32451089    -0.88000
H799        H  0.79004157  0.28935812  0.40880324     0.36100
H800        H  0.76960829  0.26296631  0.42955684     0.41200
H801        H  0.69963733  0.33337327  0.31482157     0.40800
H802        H  0.67905218  0.30558689  0.33424898     0.35700
C803        C  0.96579868  0.17762321  0.10122944    -0.26000
C804        C  0.99160188  0.17751866  0.09414876    -0.14100
C805        C  0.50936417  0.18127302  0.11862868     0.36500
C806        C  0.50107166  0.18211911  0.14935352    -0.25500
C807        C  0.97541536  0.17846589  0.15651405    -0.14700
C808        C  0.95748979  0.17795390  0.13214834     0.37600
N809        N  0.93094952  0.17707874  0.13886336    -0.89000
H810        H  0.95206351  0.17565451  0.08263891     0.18700
H811        H  0.51497445  0.18344383  0.16779257     0.18700
N812        N  0.53594085  0.18427802  0.11317113    -0.88000
H813        H  0.92034420  0.17647431  0.11839910     0.36100
H814        H  0.92648143  0.20322846  0.15011409     0.41200
H815        H  0.53914410  0.20699729  0.09749855     0.40800
H816        H  0.54246446  0.15807220  0.10377450     0.35700
C817        C  0.95966070  0.18625393  0.36664224    -0.26000
C818        C  0.97817496  0.18307576  0.34353987    -0.14100
C819        C  0.50386254  0.18397568  0.35208133     0.36500
C820        C  0.51036991  0.18499070  0.38366525    -0.25500
C821        C  0.99180317  0.18485654  0.40687136    -0.14700
C822        C  0.96616813  0.18742298  0.39822946     0.37600
N823        N  0.94676411  0.18840051  0.42139897    -0.89000
H824        H  0.93992050  0.18628968  0.36004230     0.18700
H825        H  0.53009485  0.18364902  0.39022893     0.18700
N826        N  0.52322791  0.18143428  0.32892612    -0.88000
H827        H  0.92889622  0.18765831  0.41110107     0.36100
H828        H  0.94814144  0.21530420  0.43279028     0.41200
H829        H  0.52210283  0.15364516  0.31891651     0.40800
H830        H  0.54110454  0.18347113  0.33910617     0.35700
C831        C  0.86038260  0.19877692  0.23937296    -0.26000
C832        C  0.88278666  0.21625133  0.24994585    -0.14100
C833        C  0.88240296  0.25610987  0.25886126     0.36500
C834        C  0.85986230  0.27746912  0.25648265    -0.25500
C835        C  0.83742740  0.25993056  0.24619865    -0.14700
C836        C  0.83777403  0.22012135  0.23722331     0.37600
N837        N  0.81532282  0.20153501  0.22555443    -0.89000
H838        H  0.86057395  0.16842891  0.23222697     0.18700
H839        H  0.85968623  0.30783692  0.26357984     0.18700
N840        N  0.90471445  0.27472631  0.27091541    -0.88000
H841        H  0.81867683  0.17209731  0.22060963     0.36100
H842        H  0.81075942  0.21485789  0.20448397     0.41200
H843        H  0.90896665  0.26150721  0.29212216     0.40800
H844        H  0.90133199  0.30419288  0.27573339     0.35700
C845        C  0.75941729  0.49818973  0.99410047    -0.26000
C846        C  0.74226188  0.52791969  0.50149107    -0.14100
C847        C  0.71678879  0.51760338  0.50736035     0.36500
C848        C  0.70919089  0.47819440  0.50532500    -0.25500
C849        C  0.72639544  0.44845667  0.49810861    -0.09900
C850        C  0.75184236  0.45879343  0.99215676     0.37600
N851        N  0.76994840  0.42944582  0.98372618    -0.89000
H852        H  0.77885242  0.50576692  0.98925373     0.18700
H853        H  0.68973622  0.47059553  0.51003912     0.18700
N854        N  0.69866455  0.54697270  0.51567093    -0.88000
H855        H  0.78783383  0.44178591  0.98076979     0.36100
H856        H  0.76458487  0.41826712  0.96212365     0.41200
H857        H  0.70374077  0.55772631  0.53751549     0.40800
H858        H  0.68069041  0.53475742  0.51806153     0.35700
C859        C  0.96419102  0.97550275  0.48261714    -0.26000
C860        C  0.97610926  0.94961876  0.50310037    -0.14100
C861        C  0.99672355  0.96347317  0.02121151     0.36500
C862        C  0.00518609  0.00211069  0.01740176    -0.25500
C863        C  0.99324625  0.02803495  0.49693176    -0.14700
C864        C  0.97272254  0.01407721  0.47869605     0.37600
N865        N  0.96056142  0.03740105  0.45528878    -0.89000
H866        H  0.94871728  0.96509460  0.46832176     0.18700
H867        H  0.52066242  0.01248307  0.03170813     0.18700
N868        N  0.00906989  0.93994851  0.04434450    -0.88000
H869        H  0.96148913  0.02194306  0.43439971     0.36100
H870        H  0.97045807  0.06313746  0.45104997     0.41200
H871        H  0.99950098  0.91380250  0.04814032     0.40800
H872        H  0.00797176  0.95494271  0.06543098     0.35700
C873        C  0.85989718  0.69860045  0.50460596    -0.26000
C874        C  0.83686609  0.71762831  0.99931915    -0.14100
C875        C  0.83695239  0.75865983  0.99478999     0.36500
C876        C  0.85990803  0.77935287  0.99588756    -0.25500
C877        C  0.88292300  0.76029241  0.00121775    -0.14700
C878        C  0.88280367  0.71933509  0.50600934     0.37600
N879        N  0.90582141  0.69877906  0.51265066    -0.89000
H880        H  0.86002909  0.66732676  0.50836738     0.18700
H881        H  0.85980757  0.81063202  0.99213622     0.18700
N882        N  0.81385072  0.77937286  0.98897771    -0.88000
H883        H  0.90254415  0.66874249  0.51440727     0.36100
H884        H  0.91208761  0.70798028  0.53448080     0.41200
H885        H  0.80724457  0.77068483  0.96717290     0.40800
H886        H  0.81712167  0.80945110  0.98760817     0.35700
C887        C  0.50651905  0.97602401  0.23832231    -0.26000
C888        C  0.99175236  0.94769213  0.25317408    -0.14100
C889        C  0.96924550  0.95958128  0.26810475     0.36500
C890        C  0.96193450  0.99915894  0.26721767    -0.25500
C891        C  0.97662597  0.02745555  0.25213851    -0.14700
C892        C  0.49938603  0.01563065  0.23774836     0.37600
N893        N  0.51498740  0.04353391  0.22190040    -0.89000
H894        H  0.52374521  0.96717835  0.22686493     0.18700
H895        H  0.94469911  0.00801316  0.27865081     0.18700
N896        N  0.95424566  0.93187298  0.28500774    -0.88000
H897        H  0.52961962  0.02948986  0.21016427     0.36100
H898        H  0.52366845  0.06093768  0.23878316     0.41200
H899        H  0.94520002  0.91390106  0.26881712     0.40800
H900        H  0.93988667  0.94606262  0.29714308     0.35700
C901        C  0.96655647  0.79409327  0.14967455    -0.26000
C902        C  0.99231585  0.79526636  0.15698883    -0.14100
C903        C  0.51020526  0.79195138  0.13277942     0.36500
C904        C  0.50200148  0.79099997  0.10193119    -0.25500
C905        C  0.97630856  0.79405613  0.09457520    -0.14700
C906        C  0.95833831  0.79358579  0.11869958     0.37600
N907        N  0.93181869  0.79390781  0.11164556    -0.89000
H908        H  0.95277213  0.79576643  0.16810731     0.18700
H909        H  0.51593353  0.79056744  0.08361345     0.18700
N910        N  0.53678566  0.78985773  0.13869075    -0.88000
H911        H  0.92114198  0.79497469  0.13193463     0.36100
H912        H  0.92748863  0.76739760  0.10075332     0.41200
H913        H  0.54013168  0.76745328  0.15460255     0.40800
H914        H  0.54293731  0.81634449  0.14810411     0.35700
C915        C  0.50974649  0.79640491  0.36768002    -0.26000
C916        C  0.99121578  0.79749952  0.34433684    -0.14100
C917        C  0.96552293  0.79654492  0.35270265     0.36500
C918        C  0.95900899  0.79655908  0.38424977    -0.25500
C919        C  0.97756159  0.79774357  0.40761274    -0.14700
C920        C  0.50323885  0.79619314  0.39921119     0.37600
N921        N  0.52265208  0.79675014  0.42254134    -0.89000
H922        H  0.52949139  0.79682354  0.36128013     0.18700
H923        H  0.93926542  0.79737032  0.39062445     0.18700
N924        N  0.94613756  0.79774321  0.32933817    -0.88000
H925        H  0.54049723  0.79815458  0.41238259     0.36100
H926        H  0.52185840  0.77003998  0.43421596     0.41200
H927        H  0.94722212  0.82495775  0.31844908     0.40800
H928        H  0.92826590  0.79625008  0.33943544     0.35700
C929        C  0.75270610  0.52110335  0.25238601    -0.26000
C930        C  0.72655063  0.52853557  0.25186380    -0.14100
C931        C  0.70979064  0.49645492  0.25049635     0.36500
C932        C  0.71948674  0.45824678  0.24918082    -0.25500
C933        C  0.74560538  0.45075094  0.24955160    -0.14700
C934        C  0.76241574  0.48278900  0.25118751     0.37600
N935        N  0.78922631  0.47658398  0.25170167    -0.89000
H936        H  0.76579368  0.54540226  0.25345088     0.18700
H937        H  0.70634868  0.43402138  0.24809190     0.18700
N938        N  0.68296704  0.50251461  0.25037344    -0.88000
H939        H  0.79884334  0.50311379  0.25410115     0.36100
H940        H  0.79434368  0.46532466  0.23009239     0.41200
H941        H  0.67803587  0.51342964  0.27216298     0.40800
H942        H  0.67336105  0.47599920  0.24783820     0.35700
C943        C  0.71832756  0.67735356  0.10286116    -0.26000
C944        C  0.74419413  0.67799068  0.09628032    -0.14100
C945        C  0.76163546  0.68160668  0.12114544     0.36500
C946        C  0.75289795  0.68212238  0.15173770    -0.25500
C947        C  0.72711679  0.67849576  0.15828724    -0.14700
C948        C  0.70958530  0.67752212  0.13353738     0.37600
N949        N  0.68296131  0.67578599  0.13962672    -0.89000
H950        H  0.70486113  0.67483674  0.08401756     0.18700
H951        H  0.76650521  0.68315059  0.17052269     0.18700
N952        N  0.78828590  0.68446657  0.11622909    -0.88000
H953        H  0.67268293  0.67404936  0.11897123     0.36100
H954        H  0.67789598  0.70209821  0.15025769     0.41200
H955        H  0.79176439  0.70750762  0.10095011     0.40800
H956        H  0.79475445  0.65844916  0.10646599     0.35700
C957        C  0.75035613  0.68383235  0.35315776    -0.26000
C958        C  0.72467135  0.67925589  0.34616431    -0.14100
C959        C  0.70704273  0.67736463  0.37068318     0.36500
C960        C  0.71572820  0.67667208  0.40149605    -0.25500
C961        C  0.74158466  0.67762382  0.40829929    -0.14700
C962        C  0.75900274  0.68271394  0.38380158     0.37600
N963        N  0.78555281  0.68690472  0.38923420    -0.89000
H964        H  0.76402588  0.68611069  0.33463173     0.18700
H965        H  0.70230020  0.67345455  0.42019916     0.18700
N966        N  0.68044997  0.67521625  0.36423670    -0.88000
H967        H  0.79260108  0.66109865  0.39861136     0.36100
H968        H  0.78836984  0.70968609  0.40512005     0.41200
H969        H  0.67525480  0.70131407  0.35342478     0.40800
H970        H  0.67013083  0.67366318  0.38480445     0.35700
C971        C  0.60914761  0.69869739  0.24130134    -0.26000
C972        C  0.63168634  0.71662530  0.25090339    -0.14100
C973        C  0.63116825  0.75640401  0.26001586     0.36500
C974        C  0.60829589  0.77715165  0.25906023    -0.25500
C975        C  0.58573562  0.75919015  0.24963831    -0.14700
C976        C  0.58627103  0.71949661  0.24027606     0.37600
N977        N  0.56372634  0.70044088  0.22936667    -0.89000
H978        H  0.60942871  0.66839535  0.23403611     0.18700
H979        H  0.60802955  0.80743530  0.26636973     0.18700
N980        N  0.65371685  0.77556899  0.27078023    -0.88000
H981        H  0.56730253  0.67122631  0.22386237     0.36100
H982        H  0.55837430  0.71401591  0.20867859     0.41200
H983        H  0.65900337  0.76233153  0.29162667     0.40800
H984        H  0.65018019  0.80489593  0.27594937     0.35700
O985        O  0.65567369  0.65642531  0.75023362    -0.57500
C986        C  0.71756866  0.56993474  0.75214308     0.75100
O987        O  0.73153813  0.68293342  0.71400263    -0.58700
C988        C  0.65550805  0.69360477  0.75089136     0.75100
C989        C  0.71698757  0.67215237  0.81358320     0.77500
Cd990      Cd  0.70245418  0.65141859  0.75167770     1.37500
O991        O  0.69442589  0.57948714  0.75069059    -0.57500
O992        O  0.69710475  0.65319305  0.80731096    -0.56300
C993        C  0.71895444  0.67138142  0.69057390     0.77400
O994        O  0.73039362  0.68275085  0.79069156    -0.58700
O995        O  0.73308464  0.59798554  0.75359959    -0.57100
O996        O  0.67685772  0.71023726  0.75142839    -0.57100
O997        O  0.69923003  0.65177615  0.69601624    -0.56300
O998        O  0.56172482  0.81923631  0.75225892    -0.57500
C999        C  0.50017660  0.90612010  0.75256008     0.75100
O1000       O  0.98718477  0.79170441  0.71246401    -0.58700
C1001       C  0.56189535  0.78212812  0.75030745     0.75100
C1002       C  0.99928409  0.80413048  0.81196652     0.77500
Cd1003     Cd  0.51507809  0.82450233  0.75088364     1.37500
O1004       O  0.52312010  0.89648960  0.74875483    -0.57500
O1005       O  0.51957734  0.82234013  0.80646887    -0.56300
C1006       C  0.99986559  0.80357034  0.68935255     0.77400
O1007       O  0.98629980  0.79342063  0.78861298    -0.58700
O1008       O  0.98471014  0.87821129  0.75530348    -0.57100
O1009       O  0.54055329  0.76553272  0.74923871    -0.57100
O1010       O  0.51884057  0.82473831  0.69522101    -0.56300
O1011       O  0.90688390  0.82068194  0.50067719    -0.57500
C1012       C  0.96794624  0.90801211  0.00285408     0.75100
O1013       O  0.98170469  0.79265883  0.53899439    -0.58700
C1014       C  0.90674670  0.78349550  0.50109693     0.75100
C1015       C  0.96960362  0.80544144  0.93994661     0.77500
Cd1016     Cd  0.95360357  0.82608153  0.50121886     1.37500
O1017       O  0.94488690  0.89794169  0.00129554    -0.57500
O1018       O  0.94902844  0.82278824  0.94534849    -0.56300
C1019       C  0.96873498  0.80297666  0.56232481     0.77400
O1020       O  0.98294144  0.79652290  0.96338773    -0.58700
O1021       O  0.98385149  0.88053921  0.00312616    -0.57100
O1022       O  0.92811897  0.76708165  0.50118399    -0.57100
O1023       O  0.94929220  0.82323657  0.55688497    -0.56300
O1024       O  0.81312747  0.65706236  0.50049569    -0.57500
C1025       C  0.75113453  0.56939427  0.00196072     0.75100
O1026       O  0.73891979  0.68208437  0.54080918    -0.58700
C1027       C  0.81309592  0.69424981  0.49978302     0.75100
C1028       C  0.74988203  0.67012447  0.94049095     0.77500
Cd1029     Cd  0.76651698  0.65079735  0.50176833     1.37500
O1030       O  0.77437870  0.57870317  0.00117231    -0.57500
O1031       O  0.76913738  0.64948733  0.94593996    -0.56300
C1032       C  0.75214466  0.67110013  0.56383844     0.77400
O1033       O  0.73770994  0.68243122  0.96389156    -0.58700
O1034       O  0.73575616  0.59756014  0.00274967    -0.57100
O1035       O  0.79164367  0.71042572  0.49998453    -0.57100
O1036       O  0.77183166  0.65180505  0.55773133    -0.56300
O1037       O  0.90651274  0.15578452  0.74893170    -0.57500
C1038       C  0.96798348  0.06896300  0.75179195     0.75100
O1039       O  0.98158049  0.18133612  0.71201357    -0.58700
C1040       C  0.90645008  0.19292213  0.75059386     0.75100
C1041       C  0.97004236  0.17409848  0.81146885     0.77500
Cd1042     Cd  0.95330225  0.15078374  0.75095307     1.37500
O1043       O  0.94510098  0.07868779  0.75594293    -0.57500
O1044       O  0.95003866  0.15478762  0.80670539    -0.56300
C1045       C  0.96793802  0.17120306  0.68907145     0.77400
O1046       O  0.98265819  0.18380163  0.78769627    -0.58700
O1047       O  0.98324387  0.09678654  0.74746393    -0.57100
O1048       O  0.92781092  0.20933823  0.75240473    -0.57100
O1049       O  0.94790966  0.15270148  0.69526268    -0.56300
O1050       O  0.81402978  0.32048074  0.74697989    -0.57500
C1051       C  0.75422569  0.40919151  0.74854526     0.75100
O1052       O  0.73857960  0.29712720  0.70874304    -0.58700
C1053       C  0.81381554  0.28331347  0.74619979     0.75100
C1054       C  0.75048532  0.30605036  0.80800025     0.77500
Cd1055     Cd  0.76760263  0.32697310  0.74717554     1.37500
O1056       O  0.77723963  0.39886701  0.74949333    -0.57500
O1057       O  0.77131271  0.32303311  0.80316158    -0.56300
C1058       C  0.75180144  0.30706964  0.68553162     0.77400
O1059       O  0.73754714  0.29695162  0.78421420    -0.58700
O1060       O  0.73834318  0.38169023  0.74675525    -0.57100
O1061       O  0.79232465  0.26710818  0.74605579    -0.57100
O1062       O  0.77192005  0.32561816  0.69127633    -0.56300
O1063       O  0.52416067  0.08008058  0.00049771    -0.57500
C1064       C  0.56212362  0.19441093  0.49973754     0.75100
O1065       O  0.98656689  0.18515802  0.96269862    -0.58700
C1066       C  0.50125488  0.06975889  0.99733479     0.75100
C1067       C  0.99941527  0.17064269  0.56165567     0.77500
Cd1068     Cd  0.51518863  0.15191757  0.49986652     1.37500
O1069       O  0.56187030  0.15726051  0.49852988    -0.57500
O1070       O  0.51962329  0.15276157  0.55554783    -0.56300
C1071       C  0.99960361  0.17601488  0.93912314     0.77400
O1072       O  0.98592713  0.18070540  0.53861870    -0.58700
O1073       O  0.54086061  0.21099451  0.50171719    -0.57100
O1074       O  0.98532296  0.09711471  0.99565331    -0.57100
O1075       O  0.51963922  0.15702013  0.94422837    -0.56300
O1076       O  0.65618579  0.31989405  0.49722419    -0.57500
C1077       C  0.71766334  0.40692498  0.99767136     0.75100
O1078       O  0.73095797  0.29309145  0.53567000    -0.58700
C1079       C  0.65595448  0.28275911  0.49867933     0.75100
C1080       C  0.71921934  0.30458429  0.93570326     0.77500
Cd1081     Cd  0.70286708  0.32517203  0.49720971     1.37500
O1082       O  0.69447172  0.39735243  0.99684178    -0.57500
O1083       O  0.69870325  0.32209034  0.94117742    -0.56300
C1084       C  0.71834299  0.30501680  0.55883422     0.77400
O1085       O  0.73231973  0.29508417  0.95921454    -0.58700
O1086       O  0.73316489  0.37894146  0.99843989    -0.57100
O1087       O  0.67727686  0.26616048  0.49896631    -0.57100
O1088       O  0.69895574  0.32520882  0.55297388    -0.56300
C1089       C  0.60872437  0.19895160  0.50684433    -0.26000
C1090       C  0.58597690  0.21738257  0.49904401    -0.14100
C1091       C  0.58634612  0.25751945  0.49111883     0.36500
C1092       C  0.60929186  0.27823574  0.49180268    -0.25500
C1093       C  0.63206293  0.25981802  0.49962621    -0.14700
C1094       C  0.63168191  0.21962715  0.50746956     0.37600
N1095       N  0.65448468  0.19986285  0.01636987    -0.89000
H1096       H  0.60855239  0.16831482  0.01308655     0.18700
H1097       H  0.60942984  0.30886148  0.48552753     0.18700
N1098       N  0.56356297  0.27707407  0.48184352    -0.88000
H1099       H  0.65104842  0.17021137  0.52034506     0.36100
H1100       H  0.66038791  0.21170277  0.53754115     0.41200
H1101       H  0.55770115  0.26474238  0.46083038     0.40800
H1102       H  0.56702179  0.30662349  0.97743866     0.35700
C1103       C  0.71766088  0.30053555  0.64662166    -0.26000
C1104       C  0.74354544  0.29957087  0.65326398    -0.14100
C1105       C  0.76083930  0.29451066  0.62858596     0.36500
C1106       C  0.75200502  0.29333394  0.59799814    -0.25500
C1107       C  0.72629009  0.29787516  0.59126001    -0.14700
C1108       C  0.70881887  0.29985133  0.61591129     0.37600
N1109       N  0.68220241  0.30211726  0.60968791    -0.89000
H1110       H  0.70429966  0.30377726  0.66539418     0.18700
H1111       H  0.76554290  0.29114701  0.57931674     0.18700
N1112       N  0.78743259  0.29060568  0.63371345    -0.88000
H1113       H  0.67200487  0.30410686  0.63032510     0.36100
H1114       H  0.67680461  0.27589616  0.59910308     0.41200
H1115       H  0.79044024  0.26787581  0.64947712     0.40800
H1116       H  0.79449792  0.31656710  0.64299796     0.35700
C1117       C  0.75988945  0.29425798  0.86366212    -0.26000
C1118       C  0.74178402  0.29890232  0.84009870    -0.14100
C1119       C  0.71603513  0.30067837  0.84807797     0.36500
C1120       C  0.70912990  0.29975092  0.87949639    -0.25500
C1121       C  0.72734256  0.29748381  0.90322270    -0.14700
C1122       C  0.75298172  0.29317618  0.89510596     0.37600
N1123       N  0.77207215  0.28996851  0.91868617    -0.89000
H1124       H  0.77966106  0.29253409  0.85753141     0.18700
H1125       H  0.68940212  0.30267149  0.88552762     0.18700
N1126       N  0.69708142  0.30567429  0.82451101    -0.88000
H1127       H  0.79004152  0.28935790  0.90880329     0.36100
H1128       H  0.76960830  0.26296550  0.92955652     0.41200
H1129       H  0.69963743  0.33337339  0.81482151     0.40800
H1130       H  0.67905217  0.30558753  0.83424918     0.35700
C1131       C  0.96579864  0.17762351  0.60122940    -0.26000
C1132       C  0.99160185  0.17751867  0.59414876    -0.14100
C1133       C  0.50936415  0.18127252  0.61862872     0.36500
C1134       C  0.50107163  0.18211827  0.64935354    -0.25500
C1135       C  0.97541528  0.17846529  0.65651403    -0.14700
C1136       C  0.95748972  0.17795385  0.63214831     0.37600
N1137       N  0.93094944  0.17707879  0.63886329    -0.89000
H1138       H  0.95206348  0.17565527  0.58263884     0.18700
H1139       H  0.51497443  0.18344263  0.66779260     0.18700
N1140       N  0.53594086  0.18427743  0.61317122    -0.88000
H1141       H  0.92034414  0.17647469  0.61839902     0.36100
H1142       H  0.92648139  0.20322838  0.65011426     0.41200
H1143       H  0.53914416  0.20699675  0.59749879     0.40800
H1144       H  0.54246444  0.15807165  0.60377447     0.35700
C1145       C  0.95966061  0.18625371  0.86664237    -0.26000
C1146       C  0.97817482  0.18307558  0.84353994    -0.14100
C1147       C  0.50386236  0.18397591  0.85208132     0.36500
C1148       C  0.51036983  0.18499084  0.88366521    -0.25500
C1149       C  0.99180317  0.18485666  0.90687137    -0.14700
C1150       C  0.96616812  0.18742310  0.89822956     0.37600
N1151       N  0.94676416  0.18840084  0.92139916    -0.89000
H1152       H  0.93992039  0.18628926  0.86004251     0.18700
H1153       H  0.53009480  0.18364921  0.89022879     0.18700
N1154       N  0.52322768  0.18143516  0.82892601    -0.88000
H1155       H  0.92889623  0.18765863  0.91110131     0.36100
H1156       H  0.94814155  0.21530455  0.93279038     0.41200
H1157       H  0.52210287  0.15364600  0.81891635     0.40800
H1158       H  0.54110430  0.18347247  0.83910595     0.35700
C1159       C  0.86038251  0.19877670  0.73937307    -0.26000
C1160       C  0.88278658  0.21625111  0.74994592    -0.14100
C1161       C  0.88240291  0.25610965  0.75886134     0.36500
C1162       C  0.85986226  0.27746894  0.75648267    -0.25500
C1163       C  0.83742733  0.25993041  0.74619862    -0.14700
C1164       C  0.83777395  0.22012118  0.73722331     0.37600
N1165       N  0.81532280  0.20153496  0.72555417    -0.89000
H1166       H  0.86057384  0.16842867  0.73222712     0.18700
H1167       H  0.85968621  0.30783676  0.76357982     0.18700
N1168       N  0.90471442  0.27472601  0.77091558    -0.88000
H1169       H  0.81867679  0.17209726  0.72060929     0.36100
H1170       H  0.81075956  0.21485794  0.70448370     0.41200
H1171       H  0.90896670  0.26150676  0.79212220     0.40800
H1172       H  0.90133192  0.30419258  0.77573379     0.35700
C1173       C  0.75941701  0.49818989  0.49410064    -0.26000
C1174       C  0.74226207  0.52791948  0.00149073    -0.14100
C1175       C  0.71678894  0.51760312  0.00735967     0.36500
C1176       C  0.70919102  0.47819422  0.00532379    -0.25500
C1177       C  0.72639568  0.44845651  0.99810779    -0.09900
C1178       C  0.75184201  0.45879362  0.49215689     0.37600
N1179       N  0.76994788  0.42944607  0.48372559    -0.89000
H1180       H  0.77885209  0.50576707  0.48925362     0.18700
H1181       H  0.68973627  0.47059535  0.01003745     0.18700
N1182       N  0.69866468  0.54697221  0.01567071    -0.88000
H1183       H  0.78783322  0.44178625  0.48076845     0.36100
H1184       H  0.76458384  0.41826733  0.46212329     0.41200
H1185       H  0.70374089  0.55772515  0.03751557     0.40800
H1186       H  0.68069057  0.53475693  0.01806107     0.35700
C1187       C  0.96419095  0.97550233  0.98261713    -0.26000
C1188       C  0.97610924  0.94961846  0.00310040    -0.14100
C1189       C  0.99672364  0.96347334  0.52121144     0.36500
C1190       C  0.00518613  0.00211091  0.51740190    -0.25500
C1191       C  0.99324618  0.02803459  0.99693153    -0.14700
C1192       C  0.97272239  0.01407680  0.97869600     0.37600
N1193       N  0.96056108  0.03740061  0.95528886    -0.89000
H1194       H  0.94871721  0.96509411  0.96832177     0.18700
H1195       H  0.52066236  0.01248324  0.53170837     0.18700
N1196       N  0.00907004  0.93994848  0.54434426    -0.88000
H1197       H  0.96148878  0.02194272  0.93439976     0.36100
H1198       H  0.97045757  0.06313720  0.95105006     0.41200
H1199       H  0.99950121  0.91380250  0.54813997     0.40800
H1200       H  0.00797188  0.95494251  0.56543087     0.35700
C1201       C  0.85989725  0.69860051  0.00460582    -0.26000
C1202       C  0.83686605  0.71762824  0.49931902    -0.14100
C1203       C  0.83695238  0.75865975  0.49478978     0.36500
C1204       C  0.85990800  0.77935281  0.49588745    -0.25500
C1205       C  0.88292293  0.76029235  0.50121787    -0.14700
C1206       C  0.88280374  0.71933513  0.00600910     0.37600
N1207       N  0.90582149  0.69877905  0.01265023    -0.89000
H1208       H  0.86002918  0.66732680  0.00836710     0.18700
H1209       H  0.85980757  0.81063194  0.49213603     0.18700
N1210       N  0.81385072  0.77937282  0.48897750    -0.88000
H1211       H  0.90254429  0.66874246  0.01440649     0.36100
H1212       H  0.91208765  0.70797994  0.03448050     0.41200
H1213       H  0.80724474  0.77068517  0.46717254     0.40800
H1214       H  0.81712166  0.80945110  0.48760840     0.35700
C1215       C  0.50651869  0.97602369  0.73832199    -0.26000
C1216       C  0.99175209  0.94769195  0.75317407    -0.14100
C1217       C  0.96924539  0.95958115  0.76810501     0.36500
C1218       C  0.96193445  0.99915882  0.76721796    -0.25500
C1219       C  0.97662580  0.02745533  0.75213851    -0.14700
C1220       C  0.49938574  0.01563034  0.73774806     0.37600
N1221       N  0.51498704  0.04353347  0.72189988    -0.89000
H1222       H  0.52374471  0.96717790  0.72686436     0.18700
H1223       H  0.94469920  0.00801312  0.77865135     0.18700
N1224       N  0.95424564  0.93187294  0.78500821    -0.88000
H1225       H  0.52961926  0.02948937  0.71016383     0.36100
H1226       H  0.52366814  0.06093742  0.73878254     0.41200
H1227       H  0.94519980  0.91390102  0.76881765     0.40800
H1228       H  0.93988684  0.94606256  0.79714377     0.35700
C1229       C  0.96655665  0.79409365  0.64967473    -0.26000
C1230       C  0.99231603  0.79526667  0.65698893    -0.14100
C1231       C  0.51020537  0.79195139  0.63277951     0.36500
C1232       C  0.50200151  0.79099978  0.60193131    -0.25500
C1233       C  0.97630860  0.79405621  0.59457535    -0.14700
C1234       C  0.95833840  0.79358603  0.61869979     0.37600
N1235       N  0.93181874  0.79390809  0.61164593    -0.89000
H1236       H  0.95277236  0.79576701  0.66810753     0.18700
H1237       H  0.51593354  0.79056703  0.58361356     0.18700
N1238       N  0.53678578  0.78985779  0.63869078    -0.88000
H1239       H  0.92114211  0.79497456  0.63193502     0.36100
H1240       H  0.92748867  0.76739795  0.60075345     0.41200
H1241       H  0.54013184  0.76745356  0.65460274     0.40800
H1242       H  0.54293745  0.81634468  0.64810396     0.35700
C1243       C  0.50974654  0.79640522  0.86767986    -0.26000
C1244       C  0.99121583  0.79749978  0.84433676    -0.14100
C1245       C  0.96552298  0.79654485  0.85270259     0.36500
C1246       C  0.95900908  0.79655900  0.88424972    -0.25500
C1247       C  0.97756172  0.79774347  0.90761266    -0.14700
C1248       C  0.50323895  0.79619323  0.89921103     0.37600
N1249       N  0.52265224  0.79675019  0.92254112    -0.89000
H1250       H  0.52949142  0.79682406  0.86127991     0.18700
H1251       H  0.93926551  0.79737016  0.89062443     0.18700
N1252       N  0.94613759  0.79774294  0.82933813    -0.88000
H1253       H  0.54049735  0.79815484  0.91238227     0.36100
H1254       H  0.52185868  0.77003996  0.93421560     0.41200
H1255       H  0.94722210  0.82495745  0.81844900     0.40800
H1256       H  0.92826593  0.79624975  0.83943541     0.35700
C1257       C  0.75270611  0.52110345  0.75238659    -0.26000
C1258       C  0.72655064  0.52853569  0.75186413    -0.14100
C1259       C  0.70979064  0.49645506  0.75049655     0.36500
C1260       C  0.71948676  0.45824695  0.74918082    -0.25500
C1261       C  0.74560541  0.45075111  0.74955155    -0.14700
C1262       C  0.76241577  0.48278914  0.75118776     0.37600
N1263       N  0.78922633  0.47658405  0.75170164    -0.89000
H1264       H  0.76579371  0.54540234  0.75345172     0.18700
H1265       H  0.70634871  0.43402156  0.74809171     0.18700
N1266       N  0.68296701  0.50251474  0.75037366    -0.88000
H1267       H  0.79884342  0.50311389  0.75410154     0.36100
H1268       H  0.79434362  0.46532531  0.73009222     0.41200
H1269       H  0.67803588  0.51343038  0.77216306     0.40800
H1270       H  0.67336102  0.47599928  0.74783897     0.35700
C1271       C  0.71832760  0.67735352  0.60286102    -0.26000
C1272       C  0.74419415  0.67799069  0.59628012    -0.14100
C1273       C  0.76163551  0.68160624  0.62114524     0.36500
C1274       C  0.75289807  0.68212188  0.65173751    -0.25500
C1275       C  0.72711689  0.67849577  0.65828711    -0.14700
C1276       C  0.70958538  0.67752194  0.63353724     0.37600
N1277       N  0.68296141  0.67578515  0.63962657    -0.89000
H1278       H  0.70486115  0.67483678  0.58401744     0.18700
H1279       H  0.76650539  0.68314966  0.67052246     0.18700
N1280       N  0.78828596  0.68446603  0.61622885    -0.88000
H1281       H  0.67268305  0.67404703  0.61897109     0.36100
H1282       H  0.67789569  0.70209768  0.65025670     0.41200
H1283       H  0.79176448  0.70750722  0.60095014     0.40800
H1284       H  0.79475444  0.65844865  0.60646554     0.35700
C1285       C  0.75035598  0.68383283  0.85315789    -0.26000
C1286       C  0.72467123  0.67925596  0.84616435    -0.14100
C1287       C  0.70704256  0.67736454  0.87068315     0.36500
C1288       C  0.71572797  0.67667194  0.90149609    -0.25500
C1289       C  0.74158443  0.67762420  0.90829945    -0.14700
C1290       C  0.75900254  0.68271455  0.88380176     0.37600
N1291       N  0.78555263  0.68690488  0.88923439    -0.89000
H1292       H  0.76402576  0.68611120  0.83463189     0.18700
H1293       H  0.70229997  0.67345383  0.92019914     0.18700
N1294       N  0.68044980  0.67521621  0.86423654    -0.88000
H1295       H  0.79260066  0.66109845  0.89861155     0.36100
H1296       H  0.78836993  0.70968631  0.90511993     0.41200
H1297       H  0.67525491  0.70131332  0.85342323     0.40800
H1298       H  0.67013055  0.67366519  0.88480425     0.35700
C1299       C  0.60914772  0.69869744  0.74130108    -0.26000
C1300       C  0.63168647  0.71662531  0.75090313    -0.14100
C1301       C  0.63116839  0.75640403  0.76001559     0.36500
C1302       C  0.60829603  0.77715168  0.75906000    -0.25500
C1303       C  0.58573572  0.75919018  0.74963820    -0.14700
C1304       C  0.58627111  0.71949662  0.74027594     0.37600
N1305       N  0.56372637  0.70044071  0.72936687    -0.89000
H1306       H  0.60942878  0.66839539  0.73403587     0.18700
H1307       H  0.60802972  0.80743534  0.76636949     0.18700
N1308       N  0.65371703  0.77556901  0.77077989    -0.88000
H1309       H  0.56730256  0.67122614  0.72386263     0.36100
H1310       H  0.55837413  0.71401557  0.70867877     0.41200
H1311       H  0.65900348  0.76233175  0.79162641     0.40800
H1312       H  0.65018044  0.80489602  0.77594883     0.35700
loop_ 
_geom_bond_atom_site_label_1 
_geom_bond_atom_site_label_2 
_geom_bond_distance 
_geom_bond_site_symmetry_2 
_ccdc_geom_bond_type 
O1            C4   1.273       .  A
O1           Cd6   2.487       .  S
C2           O11   1.265       .  A
C2            O7   1.272       .  A
C2          C274   1.496       .  S
O3            C9   1.272       .  A
O3           Cd6   2.491       .  S
C4           O12   1.266       .  A
C4          C316   1.490       .  S
C5           O10   1.272       .  A
C5            O8   1.265       .  A
C5          C302   1.482       .  S
Cd6          O13   2.408       .  S
Cd6          O12   2.430       .  S
Cd6          O11   2.450       .  S
Cd6           O7   2.499       .  S
Cd6          O10   2.480       .  S
Cd6           O8   2.419       .  S
C9           O13   1.265       .  A
C9          C291   1.481       .  S
O14          C17   1.273       .  A
O14         Cd19   2.481       .  S
C15          O20   1.272       .  A
C15         O680   1.264   1_455  A
C15         C888   1.493   1_455  S
O16          C22   1.272       .  A
O16        Cd675   2.484       .  S
C17          O25   1.266       .  A
C17         C319   1.490       .  S
C18          O23   1.272       .  A
C18         O677   1.266       .  A
C18         C260   1.480       .  S
Cd19         O26   2.411       .  S
Cd19         O25   2.432       .  S
Cd19         O20   2.502       .  S
Cd19         O21   2.411       .  S
Cd19        O672   2.484   1_455  S
Cd19        O680   2.454   1_455  S
Cd19        O679   2.476   1_455  S
O21         C674   1.266   1_455  A
C22         O682   1.264       .  A
C22         C246   1.479       .  S
O23        Cd675   2.476       .  S
O24         C671   1.264       .  A
O24        Cd675   2.454       .  S
O26         C678   1.264   1_455  A
O27          C30   1.273       .  A
O27         Cd32   2.484       .  S
C28          O37   1.264       .  A
C28          O33   1.271       .  A
C28         C204   1.488       .  S
O29          C35   1.271       .  A
O29         Cd32   2.487       .  S
C30          O38   1.266       .  A
C30         C221   1.491       .  S
C31          O36   1.270       .  A
C31          O34   1.265       .  A
C31         C263   1.483       .  S
Cd32         O39   2.416       .  S
Cd32         O38   2.428       .  S
Cd32        O365   2.458       .  S
Cd32        O361   2.504       .  S
Cd32        O364   2.475   1_554  S
Cd32        O362   2.425   1_554  S
O33        Cd360   2.504       .  S
O34        Cd360   2.425       .  S
C35          O39   1.265       .  A
C35         C249   1.480       .  S
O36        Cd360   2.475       .  S
O37        Cd360   2.458       .  S
O40          C43   1.274   1_554  A
O40         Cd45   2.481       .  S
C41          O50   1.264       .  A
C41          O46   1.273       .  A
C41         C190   1.495       .  S
O42          C48   1.272       .  A
O42         Cd45   2.479       .  S
C43          O51   1.266       .  A
C43         C218   1.492       .  S
C44          O49   1.272       .  A
C44          O47   1.264       .  A
C44         C305   1.479       .  S
Cd45         O52   2.431       .  S
Cd45         O51   2.437   1_554  S
Cd45        O378   2.444       .  S
Cd45        O374   2.504       .  S
Cd45        O377   2.485   1_554  S
Cd45        O375   2.414   1_554  S
O46        Cd373   2.504       .  S
O47        Cd373   2.414       .  S
C48          O52   1.265       .  A
C48         C288   1.482       .  S
O49        Cd373   2.485       .  S
O50        Cd373   2.444       .  S
O53          C56   1.273       .  A
O53         Cd58   2.488       .  S
C54          O63   1.263       .  A
C54          O59   1.272       .  A
C54         C235   1.494       .  S
O55          C61   1.272       .  A
O55         Cd58   2.487       .  S
C56          O64   1.266       .  A
C56         C176   1.489       .  S
C57          O62   1.271       .  A
C57          O60   1.265       .  A
C57         C162   1.480       .  S
Cd58         O65   2.421       .  S
Cd58         O64   2.421       .  S
Cd58         O63   2.444       .  S
Cd58         O59   2.515       .  S
Cd58         O62   2.487       .  S
Cd58         O60   2.417       .  S
C61          O65   1.265       .  A
C61         C151   1.483       .  S
O66          C69   1.273       .  A
O66         Cd71   2.472       .  S
C67          O76   1.264       .  A
C67          O72   1.272       .  A
C67         C277   1.496       .  S
O68          C74   1.271       .  A
O68         Cd71   2.477       .  S
C69          O77   1.266       .  A
C69         C179   1.487       .  S
C70          O75   1.271       .  A
C70          O73   1.265       .  A
C70         C134   1.482       .  S
Cd71         O78   2.425       .  S
Cd71         O77   2.435       .  S
Cd71         O76   2.435       .  S
Cd71         O72   2.515       .  S
Cd71         O75   2.484       .  S
Cd71         O73   2.428       .  S
C74          O78   1.264       .  A
C74         C120   1.480       .  S
O79          C82   1.271       .  A
O79        Cd412   2.506       .  S
C80          O89   1.266   1_556  A
C80          O85   1.273       .  A
C80         C106   1.489       .  S
O81          C87   1.271       .  A
O81       Cd1068   2.483       .  S
C82         O746   1.264   1_455  A
C82         C863   1.490   1_455  S
C83          O88   1.271       .  A
C83         O742   1.263       .  A
C83         C148   1.482       .  S
Cd84         O89   2.437   1_556  S
Cd84         O85   2.482       .  S
Cd84         O86   2.414   1_556  S
Cd84        O407   2.506   1_556  S
Cd84       O1065   2.483   1_455  S
Cd84        O419   2.420       .  S
Cd84       O1074   2.459   1_455  S
Cd84        O744   2.489   1_456  S
O86         C739   1.263   1_455  A
C87         O747   1.265       .  A
C87         C165   1.483       .  S
O88        Cd740   2.489   1_554  S
O90         C738   1.264       .  A
O90       Cd1068   2.459       .  S
O91         C743   1.265   1_455  A
O91        Cd412   2.420       .  S
O92          C95   1.273       .  A
O92         Cd97   2.481       .  S
C93         O102   1.264       .  A
C93          O98   1.272       .  A
C93         C193   1.495       .  S
O94         C100   1.272       .  A
O94         Cd97   2.485   1_554  S
C95         O103   1.266       .  A
C95         C109   1.490       .  S
C96         O101   1.271       .  A
C96          O99   1.266       .  A
C96         C137   1.488       .  S
Cd97        O104   2.416   1_556  S
Cd97        O103   2.433       .  S
Cd97        O430   2.442       .  S
Cd97        O426   2.512       .  S
Cd97        O429   2.491       .  S
Cd97        O427   2.430       .  S
O98        Cd425   2.512       .  S
O99        Cd425   2.430       .  S
C100        O104   1.265       .  A
C100        C123   1.481       .  S
O101       Cd425   2.491       .  S
O102       Cd425   2.442       .  S
C105        C106   1.402   1_554  A
C105        C110   1.407       .  A
C105        H440   1.083       .  S
C106        C107   1.417       .  A
C107        C108   1.407       .  A
C107        N114   1.438       .  S
C108        C109   1.404       .  A
C108        H113   1.083       .  S
C109        C110   1.418   1_556  A
C110        N439   1.438       .  S
N111        C438   1.438       .  S
N111        H443   1.046       .  S
N111        H444   1.046       .  S
H112        C433   1.083       .  S
N114        H117   1.046       .  S
N114        H446   1.046       .  S
H115        N439   1.046       .  S
H116        N439   1.046       .  S
H118        N442   1.046       .  S
C119        C120   1.402       .  A
C119        C124   1.405       .  A
C119        H126   1.084       .  S
C120        C121   1.418       .  A
C121        C122   1.400       .  A
C121        N128   1.433       .  S
C122        C123   1.402       .  A
C122        H127   1.084       .  S
C123        C124   1.415       .  A
C124        N125   1.438       .  S
N125        H129   1.046       .  S
N125        H130   1.046       .  S
N128        H131   1.047       .  S
N128        H132   1.043       .  S
C133        C134   1.406       .  A
C133        C138   1.407       .  A
C133        H140   1.084       .  S
C134        C135   1.411       .  A
C135        C136   1.406       .  A
C135        N142   1.438       .  S
C136        C137   1.407       .  A
C136        H141   1.084       .  S
C137        C138   1.413       .  A
C138        N139   1.437       .  S
N139        H143   1.045       .  S
N139        H144   1.046       .  S
N142        H145   1.046       .  S
N142        H146   1.046       .  S
C147        C148   1.403       .  A
C147        C152   1.407       .  A
C147        H154   1.084       .  S
C148        C805   1.419       .  A
C149        C150   1.399       .  A
C149        C804   1.419   1_455  A
C149        N156   1.433       .  S
C150        C807   1.401   1_455  A
C150        H155   1.084       .  S
C151        C152   1.415       .  A
C151        C806   1.401       .  A
C152        N153   1.438       .  S
N153        H157   1.046       .  S
N153        H158   1.046       .  S
N156        H159   1.046       .  S
N156        H160   1.044       .  S
C161        C162   1.406       .  A
C161        C166   1.406       .  A
C161        H168   1.084       .  S
C162        C819   1.410       .  A
C163        C164   1.405       .  A
C163        C818   1.410   1_455  A
C163        N170   1.438       .  S
C164        C821   1.407   1_455  A
C164        H169   1.084       .  S
C165        C166   1.411       .  A
C165        C820   1.407       .  A
C166        N167   1.438       .  S
N167        H171   1.045       .  S
N167        H172   1.046       .  S
N170        H173   1.046       .  S
N170        H174   1.046       .  S
C175        C176   1.404       .  A
C175        C180   1.408       .  A
C175        H182   1.083       .  S
C176        C177   1.417       .  A
C177        C178   1.406       .  A
C177        N184   1.438       .  S
C178        C179   1.402       .  A
C178        H183   1.083       .  S
C179        C180   1.416       .  A
C180        N181   1.438       .  S
N181        H185   1.046       .  S
N181        H186   1.046       .  S
N184        H187   1.046       .  S
N184        H188   1.046       .  S
C189        C194   1.409       .  A
C189        C518   1.403   1_556  A
C189        H196   1.083       .  S
C190        C191   1.419       .  A
C190        C517   1.403       .  A
C191        C192   1.410       .  A
C191        N198   1.438       .  S
C192        C193   1.404       .  A
C192        H197   1.083       .  S
C193        C522   1.419       .  A
C194        C521   1.419       .  A
C194        N195   1.438       .  S
N195        H199   1.046       .  S
N195        H200   1.046       .  S
N198        H201   1.046       .  S
N198        H202   1.046       .  S
C203        C204   1.403       .  A
C203        C208   1.406   1_565  A
C203        H210   1.084       .  S
C204        C533   1.422       .  A
C205        C206   1.406   1_565  A
C205        C532   1.422       .  A
C205        N212   1.440       .  S
C206        C535   1.404   1_554  A
C206        H867   1.084       .  S
C207        C738   1.490       .  S
C207        C208   1.422       .  A
C207        C534   1.404       .  A
C208        N209   1.440       .  S
N209        H213   1.046       .  S
N209        H214   1.042       .  S
H211        C862   1.084       .  S
N212        H215   1.042       .  S
N212        H216   1.046       .  S
C217        C222   1.407       .  A
C217        C546   1.403       .  A
C217        H224   1.083       .  S
C218        C219   1.419       .  A
C218        C545   1.403   1_556  A
C219        C220   1.408       .  A
C219        N226   1.438       .  S
C220        C221   1.403   1_556  A
C220        H225   1.083       .  S
C221        C550   1.418       .  A
C222        C549   1.418       .  A
C222        N223   1.438       .  S
N223        H227   1.046       .  S
N223        H228   1.046       .  S
N226        H229   1.046       .  S
N226        H230   1.046       .  S
C231        C236   1.409   1_465  A
C231        C888   1.403   1_455  A
C231        H238   1.083       .  S
C232        C671   1.493       .  S
C232        C233   1.418       .  A
C232        C887   1.403       .  A
C233        C234   1.411       .  A
C233        N240   1.438       .  S
C234        C235   1.404   1_565  A
C234        H239   1.084   1_565  S
C235        C892   1.418       .  A
C236        C891   1.418       .  A
C236        N237   1.438   1_655  S
N237        H241   1.045       .  S
N237        H242   1.046       .  S
N240        H243   1.045       .  S
N240        H244   1.046       .  S
C245        C246   1.401       .  A
C245        C250   1.405       .  A
C245        H252   1.084       .  S
C246        C903   1.418       .  A
C247        C248   1.400       .  A
C247        C902   1.418   1_455  A
C247        N254   1.433       .  S
C248        C905   1.402   1_455  A
C248        H253   1.084       .  S
C249        C250   1.414       .  A
C249        C904   1.402       .  A
C250        N251   1.438       .  S
N251        H255   1.045       .  S
N251        H256   1.046       .  S
N254        H257   1.045       .  S
N254        H258   1.044       .  S
C259        C264   1.405       .  A
C259        C916   1.405   1_455  A
C259        H266   1.084       .  S
C260        C261   1.411       .  A
C260        C915   1.405       .  A
C261        C262   1.406       .  A
C261        N268   1.438       .  S
C262        C263   1.407       .  A
C262        H267   1.084       .  S
C263        C920   1.411       .  A
C264        C919   1.411   1_455  A
C264        N265   1.438       .  S
N265        H269   1.045       .  S
N265        H270   1.046       .  S
N268        H271   1.046       .  S
N268        H272   1.046       .  S
C273        C274   1.411       .  A
C273        C278   1.411       .  A
C273        H280   1.083       .  S
C274        C275   1.413       .  A
C275        C276   1.408       .  A
C275        N282   1.438       .  S
C276        C277   1.409       .  A
C276        H281   1.083       .  S
C277        C278   1.414       .  A
C278        N279   1.438       .  S
N279        H283   1.046       .  S
N279        H284   1.045       .  S
N282        H285   1.046       .  S
N282        H286   1.046       .  S
C287        C288   1.402       .  A
C287        C292   1.404       .  A
C287        H294   1.084       .  S
C288        C289   1.419       .  A
C289        C290   1.401       .  A
C289        N296   1.433       .  S
C290        C291   1.402       .  A
C290        H295   1.084       .  S
C291        C292   1.414       .  A
C292        N293   1.438       .  S
N293        H297   1.045       .  S
N293        H298   1.046       .  S
N296        H299   1.046       .  S
N296        H300   1.044       .  S
C301        C302   1.402       .  A
C301        C306   1.399       .  A
C301        H308   1.084       .  S
C302        C303   1.416       .  A
C303        C304   1.406       .  A
C303        N310   1.438       .  S
C304        C305   1.401       .  A
C304        H309   1.084       .  S
C305        C306   1.417       .  A
C306        N307   1.433       .  S
N307        H311   1.042       .  S
N307        H312   1.048       .  S
N310        H313   1.046       .  S
N310        H314   1.046       .  S
C315        C316   1.403       .  A
C315        C320   1.408       .  A
C315        H322   1.083       .  S
C316        C317   1.417       .  A
C317        C318   1.407       .  A
C317        N324   1.438       .  S
C318        C319   1.403       .  A
C318        H323   1.083       .  S
C319        C320   1.418       .  A
C320        N321   1.438       .  S
N321        H325   1.045       .  S
N321        H326   1.046       .  S
N324        H327   1.046       .  S
N324        H328   1.046       .  S
O329        C332   1.273       .  A
O329       Cd334   2.487       .  S
C330        O339   1.265       .  A
C330        O335   1.272       .  A
C330        C602   1.496       .  S
O331        C337   1.272       .  A
O331       Cd334   2.491       .  S
C332        O340   1.266       .  A
C332        C644   1.490       .  S
C333        O338   1.272       .  A
C333        O336   1.265       .  A
C333        C630   1.482       .  S
Cd334       O341   2.408       .  S
Cd334       O340   2.430       .  S
Cd334       O339   2.450       .  S
Cd334       O335   2.499       .  S
Cd334       O338   2.480       .  S
Cd334       O336   2.419       .  S
C337        O341   1.265       .  A
C337        C619   1.481       .  S
O342        C345   1.273       .  A
O342       Cd347   2.481       .  S
C343       O1008   1.264   1_455  A
C343        O348   1.272       .  A
C343       C1216   1.493   1_455  S
O344        C350   1.272       .  A
O344      Cd1003   2.484       .  S
C345        O353   1.266       .  A
C345        C647   1.490       .  S
C346        O351   1.272       .  A
C346       O1005   1.266       .  A
C346        C588   1.480       .  S
Cd347      O1000   2.484   1_455  S
Cd347       O354   2.411       .  S
Cd347       O353   2.432       .  S
Cd347      O1008   2.454   1_455  S
Cd347       O348   2.502       .  S
Cd347      O1007   2.476   1_455  S
Cd347       O349   2.411       .  S
O349       C1002   1.266   1_455  A
C350       O1010   1.264       .  A
C350        C574   1.479       .  S
O351      Cd1003   2.476       .  S
O352        C999   1.264       .  A
O352      Cd1003   2.454       .  S
O354       C1006   1.264   1_455  A
O355        C358   1.273       .  A
O355       Cd360   2.484       .  S
C356        O365   1.264       .  A
C356        O361   1.271       .  A
C356        C532   1.488       .  S
O357        C363   1.271       .  A
O357       Cd360   2.487       .  S
C358        O366   1.266       .  A
C358        C549   1.491       .  S
C359        O364   1.270       .  A
C359        O362   1.265       .  A
C359        C591   1.483       .  S
Cd360       O367   2.416       .  S
Cd360       O366   2.428       .  S
C363        O367   1.265       .  A
C363        C577   1.480       .  S
O368        C371   1.274       .  A
O368       Cd373   2.481       .  S
C369        O378   1.264       .  A
C369        O374   1.273       .  A
C369        C518   1.495       .  S
O370        C376   1.272       .  A
O370       Cd373   2.479       .  S
C371        O379   1.266       .  A
C371        C546   1.492       .  S
C372        O377   1.272       .  A
C372        O375   1.264       .  A
C372        C633   1.479       .  S
Cd373       O380   2.431       .  S
Cd373       O379   2.437       .  S
C376        O380   1.265       .  A
C376        C616   1.482       .  S
O381        C384   1.273       .  A
O381       Cd386   2.488       .  S
C382        O391   1.263       .  A
C382        O387   1.272       .  A
C382        C563   1.494       .  S
O383        C389   1.272       .  A
O383       Cd386   2.487       .  S
C384        O392   1.266       .  A
C384        C504   1.489       .  S
C385        O390   1.271       .  A
C385        O388   1.265       .  A
C385        C490   1.480       .  S
Cd386       O393   2.421       .  S
Cd386       O392   2.421       .  S
Cd386       O391   2.444       .  S
Cd386       O387   2.515       .  S
Cd386       O390   2.487       .  S
Cd386       O388   2.417       .  S
C389        O393   1.265       .  A
C389        C479   1.483       .  S
O394        C397   1.273       .  A
O394       Cd399   2.472       .  S
C395        O404   1.264       .  A
C395        O400   1.272       .  A
C395        C605   1.496       .  S
O396        C402   1.271       .  A
O396       Cd399   2.477       .  S
C397        O405   1.266       .  A
C397        C507   1.487       .  S
C398        O403   1.271       .  A
C398        O401   1.265       .  A
C398        C462   1.482       .  S
Cd399       O406   2.425       .  S
Cd399       O405   2.435       .  S
Cd399       O404   2.435       .  S
Cd399       O400   2.515       .  S
Cd399       O403   2.484       .  S
Cd399       O401   2.428       .  S
C402        O406   1.264       .  A
C402        C448   1.480       .  S
O407        C410   1.271   1_554  A
C408        O417   1.266       .  A
C408        O413   1.273       .  A
C408        C434   1.489       .  S
O409        C415   1.271       .  A
O409       Cd740   2.483       .  S
C410       O1074   1.264   1_455  A
C410       C1191   1.490   1_455  S
C411        O416   1.271       .  A
C411       O1070   1.263       .  A
C411        C476   1.482       .  S
Cd412       O737   2.483   1_455  S
Cd412       O746   2.459   1_455  S
Cd412       O417   2.437       .  S
Cd412       O413   2.482       .  S
Cd412      O1072   2.489   1_455  S
Cd412       O414   2.414       .  S
O414       C1067   1.263   1_455  A
C415       O1075   1.265       .  A
C415        C493   1.483       .  S
O416      Cd1068   2.489       .  S
O418       C1066   1.264       .  A
O418       Cd740   2.459       .  S
O419       C1071   1.265   1_455  A
O420        C423   1.273       .  A
O420       Cd425   2.481       .  S
C421        O430   1.264       .  A
C421        O426   1.272       .  A
C421        C521   1.495       .  S
O422        C428   1.272       .  A
O422       Cd425   2.485       .  S
C423        O431   1.266       .  A
C423        C437   1.490       .  S
C424        O429   1.271       .  A
C424        O427   1.266       .  A
C424        C465   1.488       .  S
Cd425       O432   2.416       .  S
Cd425       O431   2.433       .  S
C428        O432   1.265       .  A
C428        C451   1.481       .  S
C433        C434   1.402       .  A
C433        C438   1.407       .  A
C434        C435   1.417       .  A
C435        C436   1.407       .  A
C435        N442   1.438       .  S
C436        C437   1.404       .  A
C436        H441   1.083       .  S
C437        C438   1.418       .  A
N442        H445   1.046       .  S
C447        C448   1.402       .  A
C447        C452   1.405       .  A
C447        H454   1.084       .  S
C448        C449   1.418       .  A
C449        C450   1.400       .  A
C449        N456   1.433       .  S
C450        C451   1.402       .  A
C450        H455   1.084       .  S
C451        C452   1.415       .  A
C452        N453   1.438       .  S
N453        H457   1.046       .  S
N453        H458   1.046       .  S
N456        H459   1.047       .  S
N456        H460   1.043       .  S
C461        C462   1.406       .  A
C461        C466   1.407       .  A
C461        H468   1.084       .  S
C462        C463   1.411       .  A
C463        C464   1.406       .  A
C463        N470   1.438       .  S
C464        C465   1.407       .  A
C464        H469   1.084       .  S
C465        C466   1.413       .  A
C466        N467   1.437       .  S
N467        H471   1.045       .  S
N467        H472   1.046       .  S
N470        H473   1.046       .  S
N470        H474   1.046       .  S
C475        C476   1.403       .  A
C475        C480   1.407       .  A
C475        H482   1.084       .  S
C476       C1133   1.419       .  A
C477       C1132   1.419   1_455  A
C477        C478   1.399       .  A
C477        N484   1.433       .  S
C478       C1135   1.401   1_455  A
C478        H483   1.084       .  S
C479       C1134   1.401       .  A
C479        C480   1.415       .  A
C480        N481   1.438       .  S
N481        H485   1.046       .  S
N481        H486   1.046       .  S
N484        H487   1.046       .  S
N484        H488   1.044       .  S
C489        C490   1.406       .  A
C489        C494   1.406       .  A
C489        H496   1.084       .  S
C490       C1147   1.410       .  A
C491       C1146   1.410   1_455  A
C491        C492   1.405       .  A
C491        N498   1.438       .  S
C492       C1149   1.407   1_455  A
C492        H497   1.084       .  S
C493       C1148   1.407       .  A
C493        C494   1.411       .  A
C494        N495   1.438       .  S
N495        H499   1.045       .  S
N495        H500   1.046       .  S
N498        H501   1.046       .  S
N498        H502   1.046       .  S
C503        C504   1.404       .  A
C503        C508   1.408       .  A
C503        H510   1.083       .  S
C504        C505   1.417       .  A
C505        C506   1.406       .  A
C505        N512   1.438       .  S
C506        C507   1.402       .  A
C506        H511   1.083       .  S
C507        C508   1.416       .  A
C508        N509   1.438       .  S
N509        H513   1.046       .  S
N509        H514   1.046       .  S
N512        H515   1.046       .  S
N512        H516   1.046       .  S
C517        C522   1.409       .  A
C517        H524   1.083       .  S
C518        C519   1.419       .  A
C519        C520   1.410       .  A
C519        N526   1.438       .  S
C520        C521   1.404   1_554  A
C520        H525   1.083       .  S
C522        N523   1.438       .  S
N523        H527   1.046       .  S
N523        H528   1.046       .  S
N526        H529   1.046       .  S
N526        H530   1.046       .  S
C531        C532   1.403   1_556  A
C531        C536   1.406   1_565  A
C531        H538   1.084       .  S
C533        C534   1.406   1_565  A
C533        N540   1.440       .  S
C534       H1195   1.084       .  S
C535       C1066   1.490       .  S
C535        C536   1.422       .  A
C536        N537   1.440       .  S
N537        H541   1.046       .  S
N537        H542   1.042       .  S
H539       C1190   1.084       .  S
N540        H543   1.042       .  S
N540        H544   1.046       .  S
C545        C550   1.407       .  A
C545        H552   1.083       .  S
C546        C547   1.419       .  A
C547        C548   1.408       .  A
C547        N554   1.438       .  S
C548        C549   1.403       .  A
C548        H553   1.083       .  S
C550        N551   1.438       .  S
N551        H555   1.046       .  S
N551        H556   1.046       .  S
N554        H557   1.046       .  S
N554        H558   1.046       .  S
C559       C1216   1.403   1_455  A
C559        C564   1.409   1_465  A
C559        H566   1.083       .  S
C560        C999   1.493       .  S
C560       C1215   1.403       .  A
C560        C561   1.418       .  A
C561        C562   1.411       .  A
C561        N568   1.438       .  S
C562        C563   1.404   1_565  A
C562        H567   1.084   1_565  S
C563       C1220   1.418       .  A
C564       C1219   1.418       .  A
C564        N565   1.438   1_655  S
N565        H569   1.045       .  S
N565        H570   1.046       .  S
N568        H571   1.045       .  S
N568        H572   1.046       .  S
C573        C574   1.401       .  A
C573        C578   1.405       .  A
C573        H580   1.084       .  S
C574       C1231   1.418       .  A
C575       C1230   1.418   1_455  A
C575        C576   1.400       .  A
C575        N582   1.433       .  S
C576       C1233   1.402   1_455  A
C576        H581   1.084       .  S
C577       C1232   1.402       .  A
C577        C578   1.414       .  A
C578        N579   1.438       .  S
N579        H583   1.045       .  S
N579        H584   1.046       .  S
N582        H585   1.045       .  S
N582        H586   1.044       .  S
C587       C1244   1.405   1_455  A
C587        C592   1.405       .  A
C587        H594   1.084       .  S
C588       C1243   1.405       .  A
C588        C589   1.411       .  A
C589        C590   1.406       .  A
C589        N596   1.438       .  S
C590        C591   1.407       .  A
C590        H595   1.084       .  S
C591       C1248   1.411       .  A
C592       C1247   1.411   1_455  A
C592        N593   1.438       .  S
N593        H597   1.045       .  S
N593        H598   1.046       .  S
N596        H599   1.046       .  S
N596        H600   1.046       .  S
C601        C602   1.411       .  A
C601        C606   1.411       .  A
C601        H608   1.083       .  S
C602        C603   1.413       .  A
C603        C604   1.408       .  A
C603        N610   1.438       .  S
C604        C605   1.409       .  A
C604        H609   1.083       .  S
C605        C606   1.414       .  A
C606        N607   1.438       .  S
N607        H611   1.046       .  S
N607        H612   1.045       .  S
N610        H613   1.046       .  S
N610        H614   1.046       .  S
C615        C616   1.402       .  A
C615        C620   1.404       .  A
C615        H622   1.084       .  S
C616        C617   1.419       .  A
C617        C618   1.401       .  A
C617        N624   1.433       .  S
C618        C619   1.402       .  A
C618        H623   1.084       .  S
C619        C620   1.414       .  A
C620        N621   1.438       .  S
N621        H625   1.045       .  S
N621        H626   1.046       .  S
N624        H627   1.046       .  S
N624        H628   1.044       .  S
C629        C630   1.402       .  A
C629        C634   1.399       .  A
C629        H636   1.084       .  S
C630        C631   1.416       .  A
C631        C632   1.406       .  A
C631        N638   1.438       .  S
C632        C633   1.401       .  A
C632        H637   1.084       .  S
C633        C634   1.417       .  A
C634        N635   1.433       .  S
N635        H639   1.042       .  S
N635        H640   1.048       .  S
N638        H641   1.046       .  S
N638        H642   1.046       .  S
C643        C644   1.403       .  A
C643        C648   1.408       .  A
C643        H650   1.083       .  S
C644        C645   1.417       .  A
C645        C646   1.407       .  A
C645        N652   1.438       .  S
C646        C647   1.403       .  A
C646        H651   1.083       .  S
C647        C648   1.418       .  A
C648        N649   1.438       .  S
N649        H653   1.045       .  S
N649        H654   1.046       .  S
N652        H655   1.046       .  S
N652        H656   1.046       .  S
O657        C660   1.273       .  A
O657       Cd662   2.487       .  S
C658        O667   1.265       .  A
C658        O663   1.272       .  A
C658        C930   1.496       .  S
O659        C665   1.272       .  A
O659       Cd662   2.491       .  S
C660        O668   1.266       .  A
C660        C972   1.490       .  S
C661        O666   1.272       .  A
C661        O664   1.265       .  A
C661        C958   1.482       .  S
Cd662       O669   2.408       .  S
Cd662       O668   2.430       .  S
Cd662       O667   2.450       .  S
Cd662       O663   2.499       .  S
Cd662       O666   2.480       .  S
Cd662       O664   2.419       .  S
C665        O669   1.265       .  A
C665        C947   1.481       .  S
O670        C673   1.273       .  A
O670       Cd675   2.481       .  S
C671        O676   1.272       .  A
O672        C678   1.272       .  A
C673        O681   1.266       .  A
C673        C975   1.490       .  S
C674        O679   1.272       .  A
C674        C916   1.480       .  S
Cd675       O682   2.411       .  S
Cd675       O681   2.432       .  S
Cd675       O676   2.502       .  S
Cd675       O677   2.411       .  S
C678        C902   1.479       .  S
O683        C686   1.273       .  A
O683       Cd688   2.484       .  S
C684        O693   1.264       .  A
C684        O689   1.271       .  A
C684        C860   1.488       .  S
O685        C691   1.271       .  A
O685       Cd688   2.487       .  S
C686        O694   1.266       .  A
C686        C877   1.491       .  S
C687        O692   1.270       .  A
C687        O690   1.265       .  A
C687        C919   1.483       .  S
Cd688       O695   2.416       .  S
Cd688       O694   2.428       .  S
Cd688      O1021   2.458       .  S
Cd688      O1017   2.504       .  S
Cd688      O1020   2.475   1_554  S
Cd688      O1018   2.425   1_554  S
O689      Cd1016   2.504       .  S
O690      Cd1016   2.425       .  S
C691        O695   1.265       .  A
C691        C905   1.480       .  S
O692      Cd1016   2.475       .  S
O693      Cd1016   2.458       .  S
O696        C699   1.274   1_554  A
O696       Cd701   2.481       .  S
C697        O706   1.264       .  A
C697        O702   1.273       .  A
C697        C846   1.495       .  S
O698        C704   1.272       .  A
O698       Cd701   2.479       .  S
C699        O707   1.266       .  A
C699        C874   1.492       .  S
C700        O705   1.272       .  A
C700        O703   1.264       .  A
C700        C961   1.479       .  S
Cd701       O708   2.431       .  S
Cd701       O707   2.437   1_554  S
Cd701      O1034   2.444       .  S
Cd701      O1030   2.504       .  S
Cd701      O1033   2.485   1_554  S
Cd701      O1031   2.414   1_554  S
O702      Cd1029   2.504       .  S
O703      Cd1029   2.414       .  S
C704        O708   1.265       .  A
C704        C944   1.482       .  S
O705      Cd1029   2.485       .  S
O706      Cd1029   2.444       .  S
O709        C712   1.273       .  A
O709       Cd714   2.488       .  S
C710        O719   1.263       .  A
C710        O715   1.272       .  A
C710        C891   1.494       .  S
O711        C717   1.272       .  A
O711       Cd714   2.487       .  S
C712        O720   1.266       .  A
C712        C832   1.489       .  S
C713        O718   1.271       .  A
C713        O716   1.265       .  A
C713        C818   1.480       .  S
Cd714       O721   2.421       .  S
Cd714       O720   2.421       .  S
Cd714       O719   2.444       .  S
Cd714       O715   2.515       .  S
Cd714       O718   2.487       .  S
Cd714       O716   2.417       .  S
C717        O721   1.265       .  A
C717        C807   1.483       .  S
O722        C725   1.273       .  A
O722       Cd727   2.472       .  S
C723        O732   1.264       .  A
C723        O728   1.272       .  A
C723        C933   1.496       .  S
O724        C730   1.271       .  A
O724       Cd727   2.477       .  S
C725        O733   1.266       .  A
C725        C835   1.487       .  S
C726        O731   1.271       .  A
C726        O729   1.265       .  A
C726        C790   1.482       .  S
Cd727       O734   2.425       .  S
Cd727       O733   2.435       .  S
Cd727       O732   2.435       .  S
Cd727       O728   2.515       .  S
Cd727       O731   2.484       .  S
Cd727       O729   2.428       .  S
C730        O734   1.264       .  A
C730        C776   1.480       .  S
O735        C738   1.271       .  A
O735      Cd1068   2.506       .  S
C736        O745   1.266   1_556  A
C736        O741   1.273       .  A
C736        C762   1.489       .  S
O737        C743   1.271       .  A
C739        O744   1.271       .  A
C739        C804   1.482       .  S
Cd740      O1063   2.506   1_556  S
Cd740      O1075   2.420       .  S
Cd740       O745   2.437   1_556  S
Cd740       O741   2.482       .  S
Cd740       O742   2.414   1_556  S
C743        C821   1.483       .  S
O747      Cd1068   2.420       .  S
O748        C751   1.273       .  A
O748       Cd753   2.481       .  S
C749        O758   1.264       .  A
C749        O754   1.272       .  A
C749        C849   1.495       .  S
O750        C756   1.272       .  A
O750       Cd753   2.485   1_554  S
C751        O759   1.266       .  A
C751        C765   1.490       .  S
C752        O757   1.271       .  A
C752        O755   1.266       .  A
C752        C793   1.488       .  S
Cd753       O760   2.416   1_556  S
Cd753       O759   2.433       .  S
Cd753      O1086   2.442       .  S
Cd753      O1082   2.512       .  S
Cd753      O1085   2.491       .  S
Cd753      O1083   2.430       .  S
O754      Cd1081   2.512       .  S
O755      Cd1081   2.430       .  S
C756        O760   1.265       .  A
C756        C779   1.481       .  S
O757      Cd1081   2.491       .  S
O758      Cd1081   2.442       .  S
C761        C762   1.402   1_554  A
C761        C766   1.407       .  A
C761       H1096   1.083       .  S
C762        C763   1.417       .  A
C763        C764   1.407       .  A
C763        N770   1.438       .  S
C764        C765   1.404       .  A
C764        H769   1.083       .  S
C765        C766   1.418   1_556  A
C766       N1095   1.438       .  S
N767       C1094   1.438       .  S
N767       H1099   1.046       .  S
N767       H1100   1.046       .  S
H768       C1089   1.083       .  S
N770        H773   1.046       .  S
N770       H1102   1.046       .  S
H771       N1095   1.046       .  S
H772       N1095   1.046       .  S
H774       N1098   1.046       .  S
C775        C776   1.402       .  A
C775        C780   1.405       .  A
C775        H782   1.084       .  S
C776        C777   1.418       .  A
C777        C778   1.400       .  A
C777        N784   1.433       .  S
C778        C779   1.402       .  A
C778        H783   1.084       .  S
C779        C780   1.415       .  A
C780        N781   1.438       .  S
N781        H785   1.046       .  S
N781        H786   1.046       .  S
N784        H787   1.047       .  S
N784        H788   1.043       .  S
C789        C790   1.406       .  A
C789        C794   1.407       .  A
C789        H796   1.084       .  S
C790        C791   1.411       .  A
C791        C792   1.406       .  A
C791        N798   1.438       .  S
C792        C793   1.407       .  A
C792        H797   1.084       .  S
C793        C794   1.413       .  A
C794        N795   1.437       .  S
N795        H799   1.045       .  S
N795        H800   1.046       .  S
N798        H801   1.046       .  S
N798        H802   1.046       .  S
C803        C804   1.403       .  A
C803        C808   1.407       .  A
C803        H810   1.084       .  S
C805        C806   1.399       .  A
C805        N812   1.433       .  S
C806        H811   1.084       .  S
C807        C808   1.415       .  A
C808        N809   1.438       .  S
N809        H813   1.046       .  S
N809        H814   1.046       .  S
N812        H815   1.046       .  S
N812        H816   1.044       .  S
C817        C818   1.406       .  A
C817        C822   1.406       .  A
C817        H824   1.084       .  S
C819        C820   1.405       .  A
C819        N826   1.438       .  S
C820        H825   1.084       .  S
C821        C822   1.411       .  A
C822        N823   1.438       .  S
N823        H827   1.045       .  S
N823        H828   1.046       .  S
N826        H829   1.046       .  S
N826        H830   1.046       .  S
C831        C832   1.404       .  A
C831        C836   1.408       .  A
C831        H838   1.083       .  S
C832        C833   1.417       .  A
C833        C834   1.406       .  A
C833        N840   1.438       .  S
C834        C835   1.402       .  A
C834        H839   1.083       .  S
C835        C836   1.416       .  A
C836        N837   1.438       .  S
N837        H841   1.046       .  S
N837        H842   1.046       .  S
N840        H843   1.046       .  S
N840        H844   1.046       .  S
C845       C1174   1.403   1_556  A
C845        C850   1.409       .  A
C845        H852   1.083       .  S
C846       C1173   1.403       .  A
C846        C847   1.419       .  A
C847        C848   1.410       .  A
C847        N854   1.438       .  S
C848        C849   1.404       .  A
C848        H853   1.083       .  S
C849       C1178   1.419       .  A
C850       C1177   1.419       .  A
C850        N851   1.438       .  S
N851        H855   1.046       .  S
N851        H856   1.046       .  S
N854        H857   1.046       .  S
N854        H858   1.046       .  S
C859        C860   1.403       .  A
C859        C864   1.406   1_565  A
C859        H866   1.084       .  S
C860       C1189   1.422       .  A
C861       C1188   1.422       .  A
C861        C862   1.406   1_665  A
C861        N868   1.440   1_655  S
C862       C1191   1.404   1_454  A
C863       C1190   1.404   1_655  A
C863        C864   1.422       .  A
C864        N865   1.440       .  S
N865        H869   1.046       .  S
N865        H870   1.042       .  S
N868        H871   1.042   1_455  S
N868        H872   1.046       .  S
C873       C1202   1.403       .  A
C873        C878   1.407       .  A
C873        H880   1.083       .  S
C874       C1201   1.403   1_556  A
C874        C875   1.419       .  A
C875        C876   1.408       .  A
C875        N882   1.438       .  S
C876        C877   1.403   1_556  A
C876        H881   1.083       .  S
C877       C1206   1.418       .  A
C878       C1205   1.418       .  A
C878        N879   1.438       .  S
N879        H883   1.046       .  S
N879        H884   1.046       .  S
N882        H885   1.046       .  S
N882        H886   1.046       .  S
C887        C892   1.409   1_565  A
C887        H894   1.083       .  S
C888        C889   1.418       .  A
C889        C890   1.411       .  A
C889        N896   1.438       .  S
C890        C891   1.404   1_565  A
C890        H895   1.084   1_565  S
C892        N893   1.438       .  S
N893        H897   1.045       .  S
N893        H898   1.046       .  S
N896        H899   1.045       .  S
N896        H900   1.046       .  S
C901        C902   1.401       .  A
C901        C906   1.405       .  A
C901        H908   1.084       .  S
C903        C904   1.400       .  A
C903        N910   1.433       .  S
C904        H909   1.084       .  S
C905        C906   1.414       .  A
C906        N907   1.438       .  S
N907        H911   1.045       .  S
N907        H912   1.046       .  S
N910        H913   1.045       .  S
N910        H914   1.044       .  S
C915        C920   1.405       .  A
C915        H922   1.084       .  S
C916        C917   1.411       .  A
C917        C918   1.406       .  A
C917        N924   1.438       .  S
C918        C919   1.407       .  A
C918        H923   1.084       .  S
C920        N921   1.438       .  S
N921        H925   1.045       .  S
N921        H926   1.046       .  S
N924        H927   1.046       .  S
N924        H928   1.046       .  S
C929        C930   1.411       .  A
C929        C934   1.411       .  A
C929        H936   1.083       .  S
C930        C931   1.413       .  A
C931        C932   1.408       .  A
C931        N938   1.438       .  S
C932        C933   1.409       .  A
C932        H937   1.083       .  S
C933        C934   1.414       .  A
C934        N935   1.438       .  S
N935        H939   1.046       .  S
N935        H940   1.045       .  S
N938        H941   1.046       .  S
N938        H942   1.046       .  S
C943        C944   1.402       .  A
C943        C948   1.404       .  A
C943        H950   1.084       .  S
C944        C945   1.419       .  A
C945        C946   1.401       .  A
C945        N952   1.433       .  S
C946        C947   1.402       .  A
C946        H951   1.084       .  S
C947        C948   1.414       .  A
C948        N949   1.438       .  S
N949        H953   1.045       .  S
N949        H954   1.046       .  S
N952        H955   1.046       .  S
N952        H956   1.044       .  S
C957        C958   1.402       .  A
C957        C962   1.399       .  A
C957        H964   1.084       .  S
C958        C959   1.416       .  A
C959        C960   1.406       .  A
C959        N966   1.438       .  S
C960        C961   1.401       .  A
C960        H965   1.084       .  S
C961        C962   1.417       .  A
C962        N963   1.433       .  S
N963        H967   1.042       .  S
N963        H968   1.048       .  S
N966        H969   1.046       .  S
N966        H970   1.046       .  S
C971        C972   1.403       .  A
C971        C976   1.408       .  A
C971        H978   1.083       .  S
C972        C973   1.417       .  A
C973        C974   1.407       .  A
C973        N980   1.438       .  S
C974        C975   1.403       .  A
C974        H979   1.083       .  S
C975        C976   1.418       .  A
C976        N977   1.438       .  S
N977        H981   1.045       .  S
N977        H982   1.046       .  S
N980        H983   1.046       .  S
N980        H984   1.046       .  S
O985        C988   1.273       .  A
O985       Cd990   2.487       .  S
C986        O995   1.265       .  A
C986        O991   1.272       .  A
C986       C1258   1.496       .  S
O987        C993   1.272       .  A
O987       Cd990   2.491       .  S
C988        O996   1.266       .  A
C988       C1300   1.490       .  S
C989        O994   1.272       .  A
C989        O992   1.265       .  A
C989       C1286   1.482       .  S
Cd990       O997   2.408       .  S
Cd990       O996   2.430       .  S
Cd990       O995   2.450       .  S
Cd990       O991   2.499       .  S
Cd990       O994   2.480       .  S
Cd990       O992   2.419       .  S
C993        O997   1.265       .  A
C993       C1275   1.481       .  S
O998       C1001   1.273       .  A
O998      Cd1003   2.481       .  S
C999       O1004   1.272       .  A
O1000      C1006   1.272       .  A
C1001      O1009   1.266       .  A
C1001      C1303   1.490       .  S
C1002      O1007   1.272       .  A
C1002      C1244   1.480       .  S
Cd1003     O1010   2.411       .  S
Cd1003     O1009   2.432       .  S
Cd1003     O1004   2.502       .  S
Cd1003     O1005   2.411       .  S
C1006      C1230   1.479       .  S
O1011      C1014   1.273       .  A
O1011     Cd1016   2.484       .  S
C1012      O1021   1.264       .  A
C1012      O1017   1.271       .  A
C1012      C1188   1.488       .  S
O1013      C1019   1.271       .  A
O1013     Cd1016   2.487       .  S
C1014      O1022   1.266       .  A
C1014      C1205   1.491       .  S
C1015      O1020   1.270       .  A
C1015      O1018   1.265       .  A
C1015      C1247   1.483       .  S
Cd1016     O1023   2.416       .  S
Cd1016     O1022   2.428       .  S
C1019      O1023   1.265       .  A
C1019      C1233   1.480       .  S
O1024      C1027   1.274       .  A
O1024     Cd1029   2.481       .  S
C1025      O1034   1.264       .  A
C1025      O1030   1.273       .  A
C1025      C1174   1.495       .  S
O1026      C1032   1.272       .  A
O1026     Cd1029   2.479       .  S
C1027      O1035   1.266       .  A
C1027      C1202   1.492       .  S
C1028      O1033   1.272       .  A
C1028      O1031   1.264       .  A
C1028      C1289   1.479       .  S
Cd1029     O1036   2.431       .  S
Cd1029     O1035   2.437       .  S
C1032      O1036   1.265       .  A
C1032      C1272   1.482       .  S
O1037      C1040   1.273       .  A
O1037     Cd1042   2.488       .  S
C1038      O1047   1.263       .  A
C1038      O1043   1.272       .  A
C1038      C1219   1.494       .  S
O1039      C1045   1.272       .  A
O1039     Cd1042   2.487       .  S
C1040      O1048   1.266       .  A
C1040      C1160   1.489       .  S
C1041      O1046   1.271       .  A
C1041      O1044   1.265       .  A
C1041      C1146   1.480       .  S
Cd1042     O1049   2.421       .  S
Cd1042     O1048   2.421       .  S
Cd1042     O1047   2.444       .  S
Cd1042     O1043   2.515       .  S
Cd1042     O1046   2.487       .  S
Cd1042     O1044   2.417       .  S
C1045      O1049   1.265       .  A
C1045      C1135   1.483       .  S
O1050      C1053   1.273       .  A
O1050     Cd1055   2.472       .  S
C1051      O1060   1.264       .  A
C1051      O1056   1.272       .  A
C1051      C1261   1.496       .  S
O1052      C1058   1.271       .  A
O1052     Cd1055   2.477       .  S
C1053      O1061   1.266       .  A
C1053      C1163   1.487       .  S
C1054      O1059   1.271       .  A
C1054      O1057   1.265       .  A
C1054      C1118   1.482       .  S
Cd1055     O1062   2.425       .  S
Cd1055     O1061   2.435       .  S
Cd1055     O1060   2.435       .  S
Cd1055     O1056   2.515       .  S
Cd1055     O1059   2.484       .  S
Cd1055     O1057   2.428       .  S
C1058      O1062   1.264       .  A
C1058      C1104   1.480       .  S
O1063      C1066   1.271   1_554  A
C1064      O1073   1.266       .  A
C1064      O1069   1.273       .  A
C1064      C1090   1.489       .  S
O1065      C1071   1.271       .  A
C1067      O1072   1.271       .  A
C1067      C1132   1.482       .  S
Cd1068     O1073   2.437       .  S
Cd1068     O1069   2.482       .  S
Cd1068     O1070   2.414       .  S
C1071      C1149   1.483       .  S
O1076      C1079   1.273       .  A
O1076     Cd1081   2.481       .  S
C1077      O1086   1.264       .  A
C1077      O1082   1.272       .  A
C1077      C1177   1.495       .  S
O1078      C1084   1.272       .  A
O1078     Cd1081   2.485       .  S
C1079      O1087   1.266       .  A
C1079      C1093   1.490       .  S
C1080      O1085   1.271       .  A
C1080      O1083   1.266       .  A
C1080      C1121   1.488       .  S
Cd1081     O1088   2.416       .  S
Cd1081     O1087   2.433       .  S
C1084      O1088   1.265       .  A
C1084      C1107   1.481       .  S
C1089      C1090   1.402       .  A
C1089      C1094   1.407       .  A
C1090      C1091   1.417       .  A
C1091      C1092   1.407       .  A
C1091      N1098   1.438       .  S
C1092      C1093   1.404       .  A
C1092      H1097   1.083       .  S
C1093      C1094   1.418       .  A
N1098      H1101   1.046       .  S
C1103      C1104   1.402       .  A
C1103      C1108   1.405       .  A
C1103      H1110   1.084       .  S
C1104      C1105   1.418       .  A
C1105      C1106   1.400       .  A
C1105      N1112   1.433       .  S
C1106      C1107   1.402       .  A
C1106      H1111   1.084       .  S
C1107      C1108   1.415       .  A
C1108      N1109   1.438       .  S
N1109      H1113   1.046       .  S
N1109      H1114   1.046       .  S
N1112      H1115   1.047       .  S
N1112      H1116   1.043       .  S
C1117      C1118   1.406       .  A
C1117      C1122   1.407       .  A
C1117      H1124   1.084       .  S
C1118      C1119   1.411       .  A
C1119      C1120   1.406       .  A
C1119      N1126   1.438       .  S
C1120      C1121   1.407       .  A
C1120      H1125   1.084       .  S
C1121      C1122   1.413       .  A
C1122      N1123   1.437       .  S
N1123      H1127   1.045       .  S
N1123      H1128   1.046       .  S
N1126      H1129   1.046       .  S
N1126      H1130   1.046       .  S
C1131      C1132   1.403       .  A
C1131      C1136   1.407       .  A
C1131      H1138   1.084       .  S
C1133      C1134   1.399       .  A
C1133      N1140   1.433       .  S
C1134      H1139   1.084       .  S
C1135      C1136   1.415       .  A
C1136      N1137   1.438       .  S
N1137      H1141   1.046       .  S
N1137      H1142   1.046       .  S
N1140      H1143   1.046       .  S
N1140      H1144   1.044       .  S
C1145      C1146   1.406       .  A
C1145      C1150   1.406       .  A
C1145      H1152   1.084       .  S
C1147      C1148   1.405       .  A
C1147      N1154   1.438       .  S
C1148      H1153   1.084       .  S
C1149      C1150   1.411       .  A
C1150      N1151   1.438       .  S
N1151      H1155   1.045       .  S
N1151      H1156   1.046       .  S
N1154      H1157   1.046       .  S
N1154      H1158   1.046       .  S
C1159      C1160   1.404       .  A
C1159      C1164   1.408       .  A
C1159      H1166   1.083       .  S
C1160      C1161   1.417       .  A
C1161      C1162   1.406       .  A
C1161      N1168   1.438       .  S
C1162      C1163   1.402       .  A
C1162      H1167   1.083       .  S
C1163      C1164   1.416       .  A
C1164      N1165   1.438       .  S
N1165      H1169   1.046       .  S
N1165      H1170   1.046       .  S
N1168      H1171   1.046       .  S
N1168      H1172   1.046       .  S
C1173      C1178   1.409       .  A
C1173      H1180   1.083       .  S
C1174      C1175   1.419       .  A
C1175      C1176   1.410       .  A
C1175      N1182   1.438       .  S
C1176      C1177   1.404   1_554  A
C1176      H1181   1.083       .  S
C1178      N1179   1.438       .  S
N1179      H1183   1.046       .  S
N1179      H1184   1.046       .  S
N1182      H1185   1.046       .  S
N1182      H1186   1.046       .  S
C1187      C1188   1.403   1_556  A
C1187      C1192   1.406   1_565  A
C1187      H1194   1.084       .  S
C1189      C1190   1.406   1_665  A
C1189      N1196   1.440   1_655  S
C1191      C1192   1.422       .  A
C1192      N1193   1.440       .  S
N1193      H1197   1.046       .  S
N1193      H1198   1.042       .  S
N1196      H1199   1.042   1_455  S
N1196      H1200   1.046       .  S
C1201      C1206   1.407       .  A
C1201      H1208   1.083       .  S
C1202      C1203   1.419       .  A
C1203      C1204   1.408       .  A
C1203      N1210   1.438       .  S
C1204      C1205   1.403       .  A
C1204      H1209   1.083       .  S
C1206      N1207   1.438       .  S
N1207      H1211   1.046       .  S
N1207      H1212   1.046       .  S
N1210      H1213   1.046       .  S
N1210      H1214   1.046       .  S
C1215      C1220   1.409   1_565  A
C1215      H1222   1.083       .  S
C1216      C1217   1.418       .  A
C1217      C1218   1.411       .  A
C1217      N1224   1.438       .  S
C1218      C1219   1.404   1_565  A
C1218      H1223   1.084   1_565  S
C1220      N1221   1.438       .  S
N1221      H1225   1.045       .  S
N1221      H1226   1.046       .  S
N1224      H1227   1.045       .  S
N1224      H1228   1.046       .  S
C1229      C1230   1.401       .  A
C1229      C1234   1.405       .  A
C1229      H1236   1.084       .  S
C1231      C1232   1.400       .  A
C1231      N1238   1.433       .  S
C1232      H1237   1.084       .  S
C1233      C1234   1.414       .  A
C1234      N1235   1.438       .  S
N1235      H1239   1.045       .  S
N1235      H1240   1.046       .  S
N1238      H1241   1.045       .  S
N1238      H1242   1.044       .  S
C1243      C1248   1.405       .  A
C1243      H1250   1.084       .  S
C1244      C1245   1.411       .  A
C1245      C1246   1.406       .  A
C1245      N1252   1.438       .  S
C1246      C1247   1.407       .  A
C1246      H1251   1.084       .  S
C1248      N1249   1.438       .  S
N1249      H1253   1.045       .  S
N1249      H1254   1.046       .  S
N1252      H1255   1.046       .  S
N1252      H1256   1.046       .  S
C1257      C1258   1.411       .  A
C1257      C1262   1.411       .  A
C1257      H1264   1.083       .  S
C1258      C1259   1.413       .  A
C1259      C1260   1.408       .  A
C1259      N1266   1.438       .  S
C1260      C1261   1.409       .  A
C1260      H1265   1.083       .  S
C1261      C1262   1.414       .  A
C1262      N1263   1.438       .  S
N1263      H1267   1.046       .  S
N1263      H1268   1.045       .  S
N1266      H1269   1.046       .  S
N1266      H1270   1.046       .  S
C1271      C1272   1.402       .  A
C1271      C1276   1.404       .  A
C1271      H1278   1.084       .  S
C1272      C1273   1.419       .  A
C1273      C1274   1.401       .  A
C1273      N1280   1.433       .  S
C1274      C1275   1.402       .  A
C1274      H1279   1.084       .  S
C1275      C1276   1.414       .  A
C1276      N1277   1.438       .  S
N1277      H1281   1.045       .  S
N1277      H1282   1.046       .  S
N1280      H1283   1.046       .  S
N1280      H1284   1.044       .  S
C1285      C1286   1.402       .  A
C1285      C1290   1.399       .  A
C1285      H1292   1.084       .  S
C1286      C1287   1.416       .  A
C1287      C1288   1.406       .  A
C1287      N1294   1.438       .  S
C1288      C1289   1.401       .  A
C1288      H1293   1.084       .  S
C1289      C1290   1.417       .  A
C1290      N1291   1.433       .  S
N1291      H1295   1.042       .  S
N1291      H1296   1.048       .  S
N1294      H1297   1.046       .  S
N1294      H1298   1.046       .  S
C1299      C1300   1.403       .  A
C1299      C1304   1.408       .  A
C1299      H1306   1.083       .  S
C1300      C1301   1.417       .  A
C1301      C1302   1.407       .  A
C1301      N1308   1.438       .  S
C1302      C1303   1.403       .  A
C1302      H1307   1.083       .  S
C1303      C1304   1.418       .  A
C1304      N1305   1.438       .  S
N1305      H1309   1.045       .  S
N1305      H1310   1.046       .  S
N1308      H1311   1.046       .  S
N1308      H1312   1.046       .  S
