geometry optimzed in LAMMPS
_audit_creation_date              2020-11-30 
_audit_creation_method            'lammps2cif' 
_symmetry_space_group_name_H-M    'P1' 
_symmetry_Int_Tables_number       1 
_symmetry_cell_setting            triclinic 
loop_ 
_symmetry_equiv_pos_as_xyz 
  x,y,z 
_cell_length_a                    74.45810947 
_cell_length_b                    41.74013004306533 
_cell_length_c                    40.60296788219482 
_cell_angle_alpha                 89.85655203545056 
_cell_angle_beta                  90.00220185979514 
_cell_angle_gamma                 90.41666387185441 
loop_ 
_atom_site_label 
_atom_site_type_symbol 
_atom_site_fract_x 
_atom_site_fract_y 
_atom_site_fract_z 
_atom_site_charge 
In1        In  0.32107946  0.13454420  0.68664855     1.36900
C2          C  0.30486905  0.13547765  0.74498377     0.79500
O3          O  0.34891823  0.12568847  0.70563588    -0.59000
O4          O  0.34512003  0.16456613  0.67268815    -0.49900
C5          C  0.32220820  0.08017435  0.65305585     0.72100
O6          O  0.32098021  0.08091527  0.68405890    -0.44700
C7          C  0.29897774  0.17586267  0.65798354     0.76900
O8          O  0.30042549  0.11586859  0.72285554    -0.56600
O9          O  0.31087943  0.18419157  0.67832720    -0.46700
O10         O  0.31813063  0.15298386  0.73786581    -0.53000
C11         C  0.35587953  0.14894267  0.69039686     0.87000
O12         O  0.32320847  0.10730321  0.63928452    -0.54900
O13         O  0.29878486  0.14645967  0.65123082    -0.58200
In14       In  0.31630921  0.22410390  0.07421596     1.36900
C15         C  0.30317804  0.22676125  0.01332236     0.79500
O16         O  0.34523227  0.23966891  0.06854547    -0.59000
O17         O  0.33955878  0.19000094  0.07223786    -0.49900
C18         C  0.31451823  0.27397146  0.11454758     0.72100
O19         O  0.31626428  0.27708033  0.08379117    -0.44700
C20         C  0.29410187  0.18071715  0.10019764     0.76900
O21         O  0.29895574  0.24667675  0.03521148    -0.56600
O22         O  0.28910856  0.20155335  0.07974662    -0.46700
O23         O  0.31489284  0.20678956  0.02202905    -0.53000
C24         C  0.35136152  0.21165074  0.06956453     0.87000
O25         O  0.31357648  0.24544452  0.12454659    -0.54900
O26         O  0.31040299  0.18271142  0.10841605    -0.58200
In27       In  0.26656927  0.18553374  0.87663159     1.36900
C28         C  0.24661131  0.23673551  0.86214255     0.79500
O29         O  0.29071393  0.19327300  0.84436266    -0.59000
O30         O  0.27270234  0.15582199  0.83174376    -0.49900
C31         C  0.28650637  0.19706092  0.92978176     0.72100
O32         O  0.27291276  0.21356310  0.92264685    -0.44700
C33         C  0.24683785  0.13415145  0.89147632     0.76900
O34         O  0.26259657  0.23367220  0.85266681    -0.56600
O35         O  0.25942856  0.14422942  0.90946978    -0.46700
O36         O  0.24078062  0.21371507  0.87929957    -0.53000
C37         C  0.28698168  0.17074068  0.82498735     0.87000
O38         O  0.28986339  0.17492096  0.90975938    -0.54900
O39         O  0.24409209  0.15060197  0.86586707    -0.58200
In40       In  0.18745758  0.33631039  0.81266263     1.36900
C41         C  0.20695772  0.29205188  0.84386262     0.79500
O42         O  0.15951287  0.32720761  0.83295034    -0.59000
O43         O  0.16279103  0.32790830  0.78128159    -0.49900
C44         C  0.18931389  0.39498853  0.83963307     0.72100
O45         O  0.19090457  0.36963814  0.85635787    -0.44700
C46         C  0.20402301  0.33120830  0.75490041     0.76900
O47         O  0.21361870  0.31772044  0.83276777    -0.56600
O48         O  0.19524078  0.30838778  0.76763137    -0.46700
O49         O  0.19015361  0.28991642  0.84095785    -0.53000
C50         C  0.15222239  0.32396413  0.80512141     0.87000
O51         O  0.18663183  0.39028781  0.80940852    -0.54900
O52         O  0.20407955  0.35672560  0.77144951    -0.58200
In53       In  0.18020921  0.27727911  0.44037595     1.36900
C54         C  0.20258031  0.32129255  0.41571980     0.79500
O55         O  0.15446014  0.29174721  0.41465260    -0.59000
O56         O  0.15710932  0.30213880  0.46529544    -0.49900
C57         C  0.17684147  0.22109790  0.40899007     0.72100
O58         O  0.17977468  0.24727625  0.39444591    -0.44700
C59         C  0.19603880  0.26737306  0.49852809     0.76900
O60         O  0.20305892  0.29227124  0.40749399    -0.56600
O61         O  0.17923288  0.26624179  0.49480062    -0.46700
O62         O  0.19033824  0.32807841  0.43591328    -0.53000
C63         C  0.14741171  0.30360097  0.44000146     0.87000
O64         O  0.17549611  0.22348274  0.43984395    -0.54900
O65         O  0.20475857  0.27117222  0.47217219    -0.58200
In66       In  0.24679341  0.29320396  0.62394736     1.36900
C67         C  0.26350105  0.34811958  0.60906655     0.79500
O68         O  0.26895697  0.27773896  0.65734293    -0.59000
O69         O  0.26019460  0.24501324  0.62071518    -0.49900
C70         C  0.22511806  0.29864993  0.67589655     0.72100
O71         O  0.23328727  0.32212662  0.66318571    -0.44700
C72         C  0.23089445  0.27695907  0.56732055     0.76900
O73         O  0.27135426  0.32460919  0.62194490    -0.56600
O74         O  0.24766869  0.27977066  0.57039338    -0.46700
O75         O  0.24698751  0.34369259  0.60378314    -0.53000
C76         C  0.27080413  0.25071317  0.64424195     0.87000
O77         O  0.22741967  0.27244762  0.66124117    -0.54900
O78         O  0.22215960  0.28168055  0.59348017    -0.58200
In79       In  0.31294704  0.40896088  0.18971225     1.36900
C80         C  0.29668312  0.40571263  0.24788847     0.79500
O81         O  0.33945365  0.40507758  0.21638797    -0.59000
O82         O  0.33827107  0.43374328  0.17330731    -0.49900
C83         C  0.31509122  0.35881249  0.14991967     0.72100
O84         O  0.31199674  0.35591305  0.18039746    -0.44700
C85         C  0.28957239  0.45028388  0.16466707     0.76900
O86         O  0.29616459  0.38272434  0.22775413    -0.56600
O87         O  0.30328168  0.45900829  0.18056213    -0.46700
O88         O  0.30611480  0.42927189  0.23875412    -0.53000
C89         C  0.34772259  0.42321530  0.19661992     0.87000
O90         O  0.31725557  0.38721685  0.14005554    -0.54900
O91         O  0.28818164  0.42052681  0.16042386    -0.58200
In92       In  0.32003165  0.45635581  0.56577274     1.36900
C93         C  0.30278927  0.46370765  0.50872811     0.79500
O94         O  0.34873025  0.47116647  0.55641695    -0.59000
O95         O  0.34285985  0.42162249  0.56003501    -0.49900
C96         C  0.32114575  0.01830483  0.58342096     0.72100
O97         O  0.32093245  0.01724855  0.55237145    -0.44700
C98         C  0.30057887  0.41043273  0.59443100     0.76900
O99         O  0.30092068  0.48252751  0.53259285    -0.56600
O100        O  0.29365919  0.43219043  0.57708602    -0.46700
O101        O  0.31421010  0.44197235  0.51332510    -0.53000
C102        C  0.35470623  0.44307612  0.55680864     0.87000
O103        O  0.31747957  0.47783652  0.61625550    -0.54900
O104        O  0.31729649  0.41318290  0.59860118    -0.58200
In105      In  0.25396355  0.44029591  0.38047680     1.36900
C106        C  0.23065291  0.39745892  0.40373125     0.79500
O107        O  0.27587310  0.41857018  0.41083491    -0.59000
O108        O  0.26763943  0.46568878  0.42271676    -0.49900
C109        C  0.27481007  0.43441305  0.32770282     0.72100
O110        O  0.26473106  0.41207010  0.33778899    -0.44700
C111        C  0.23099407  0.48460223  0.36002259     0.76900
O112        O  0.24061774  0.39206836  0.37928726    -0.56600
O113        O  0.24248884  0.49018732  0.38217654    -0.46700
O114        O  0.23282180  0.42460592  0.41666517    -0.53000
C115        C  0.27779790  0.44247421  0.42935004     0.87000
O116        O  0.27429383  0.45962033  0.34468932    -0.54900
O117        O  0.23153469  0.45681018  0.34815703    -0.58200
In118      In  0.19070012  0.02098739  0.91889926     1.36900
C119        C  0.21143944  0.06737444  0.89409235     0.79500
O120        O  0.16773106  0.05560965  0.92031115    -0.59000
O121        O  0.16159483  0.00597931  0.91948264    -0.49900
C122        C  0.19191466  0.46539187  0.90093712     0.72100
O123        O  0.19231431  0.49109819  0.88448880    -0.44700
C124        C  0.20246775  0.01895879  0.98085999     0.76900
O125        O  0.21606660  0.05001398  0.91795817    -0.56600
O126        O  0.18896135  0.03506784  0.97234429    -0.46700
O127        O  0.19649287  0.06000675  0.88158192    -0.53000
C128        C  0.15574349  0.03419491  0.91984663     0.87000
O129        O  0.19113865  0.46943448  0.93159369    -0.54900
O130        O  0.20907061  0.00206648  0.95827753    -0.58200
In131      In  0.17696558  0.10371356  0.30576571     1.36900
C132        C  0.19952127  0.06120078  0.33132674     0.79500
O133        O  0.15424022  0.06975708  0.31799958    -0.59000
O134        O  0.14790776  0.11363092  0.29458427    -0.49900
C135        C  0.17625838  0.15801681  0.34002454     0.72100
O136        O  0.17535221  0.13080056  0.35367657    -0.44700
C137        C  0.19305235  0.10700171  0.24710587     0.76900
O138        O  0.19783585  0.08900453  0.34284421    -0.56600
O139        O  0.17876685  0.09126524  0.25180133    -0.46700
O140        O  0.18922271  0.05479351  0.30763236    -0.53000
C141        C  0.14220064  0.08769236  0.30662605     0.87000
O142        O  0.17746168  0.15732313  0.30900587    -0.54900
O143        O  0.19822036  0.12312672  0.27152319    -0.58200
In144      In  0.23716632  0.06681269  0.11737015     1.36900
C145        C  0.26260812  0.02324544  0.12879878     0.79500
O146        O  0.24331354  0.11028171  0.08669336    -0.59000
O147        O  0.25786991  0.10377628  0.13126472    -0.49900
C148        C  0.21771296  0.05230566  0.06400436     0.72100
O149        O  0.23145926  0.03674972  0.07222315    -0.44700
C150        C  0.21510069  0.07526786  0.16866012     0.76900
O151        O  0.24691696  0.02046495  0.14026943    -0.56600
O152        O  0.22674865  0.09567381  0.16021580    -0.46700
O153        O  0.26508832  0.04771692  0.11127792    -0.53000
C154        C  0.25545917  0.12048567  0.10571590     0.87000
O155        O  0.21403856  0.07520056  0.08286993    -0.54900
O156        O  0.21502857  0.05023463  0.15147312    -0.58200
In157      In  0.56887247  0.34925994  0.92669840     1.36900
C158        C  0.54988278  0.30066089  0.90079074     0.79500
O159        O  0.59524840  0.33672015  0.90308431    -0.59000
O160        O  0.59442682  0.34059699  0.95513704    -0.49900
C161        C  0.57062759  0.40668484  0.89691979     0.72100
O162        O  0.56666607  0.38128695  0.88163600    -0.44700
C163        C  0.55171613  0.35118697  0.98440536     0.76900
O164        O  0.56640322  0.29928920  0.90672954    -0.56600
O165        O  0.56407909  0.33153335  0.97843539    -0.46700
O166        O  0.54303833  0.32766526  0.90618105    -0.53000
C167        C  0.60365649  0.33434127  0.92993399     0.87000
O168        O  0.57354699  0.40267826  0.92720218    -0.54900
O169        O  0.54865193  0.37071426  0.96140459    -0.58200
In170      In  0.56863117  0.27810918  0.30374396     1.36900
C171        C  0.54341454  0.31463140  0.33025048     0.79500
O172        O  0.59270898  0.29729698  0.33111141    -0.59000
O173        O  0.59596799  0.28594979  0.28076810    -0.49900
C174        C  0.56883140  0.22127842  0.33405061     0.72100
O175        O  0.56749612  0.24741123  0.34936134    -0.44700
C176        C  0.55491046  0.28088830  0.24323123     0.76900
O177        O  0.54153626  0.28478687  0.32713828    -0.56600
O178        O  0.56006967  0.30540231  0.25871504    -0.46700
O179        O  0.55840385  0.32555473  0.32087237    -0.53000
C180        C  0.60309236  0.29647003  0.30673801     0.87000
O181        O  0.57021104  0.22419968  0.30322405    -0.54900
O182        O  0.55750297  0.25475894  0.25807861    -0.58200
In183      In  0.50769310  0.31524551  0.11597624     1.36900
C184        C  0.48251053  0.35588397  0.13536517     0.79500
O185        O  0.48977706  0.29275722  0.07814248    -0.59000
O186        O  0.49328698  0.26793666  0.12332685    -0.49900
C187        C  0.53041004  0.32377895  0.06580503     0.72100
O188        O  0.51802829  0.34328517  0.07220983    -0.44700
C189        C  0.52949470  0.31200127  0.16788951     0.76900
O190        O  0.49496259  0.36424072  0.11595871    -0.56600
O191        O  0.52395476  0.28749564  0.15278228    -0.46700
O192        O  0.48318722  0.32724326  0.14494520    -0.53000
C193        C  0.48558235  0.26893754  0.09568233     0.87000
O194        O  0.53125247  0.30023805  0.08519625    -0.54900
O195        O  0.52411131  0.33819395  0.15615334    -0.58200
In196      In  0.43616258  0.20497205  0.68494363     1.36900
C197        C  0.44709799  0.20530036  0.74757303     0.79500
O198        O  0.40735703  0.22013641  0.68165048    -0.59000
O199        O  0.41295805  0.17065231  0.68846664    -0.49900
C200        C  0.43836008  0.25621159  0.64587781     0.72100
O201        O  0.43696986  0.25865378  0.67679633    -0.44700
C202        C  0.45735862  0.16059765  0.65889202     0.76900
O203        O  0.45593271  0.21821888  0.72458565    -0.56600
O204        O  0.44066271  0.16105666  0.65389223    -0.46700
O205        O  0.43197612  0.19454549  0.73907729    -0.53000
C206        C  0.40122690  0.19204857  0.68463209     0.87000
O207        O  0.43914012  0.22789791  0.63544371    -0.54900
O208        O  0.46318209  0.18305619  0.67664205    -0.58200
In209      In  0.43141564  0.15360621  0.06332685     1.36900
C210        C  0.44429005  0.15400169  0.00185724     0.79500
O211        O  0.40221375  0.14099637  0.05677537    -0.59000
O212        O  0.40857435  0.18768951  0.07356819    -0.49900
C213        C  0.43421032  0.09719511  0.09420263     0.72100
O214        O  0.43760419  0.10073760  0.06394270    -0.44700
C215        C  0.45328800  0.19729422  0.09018598     0.76900
O216        O  0.45345046  0.14553974  0.02647707    -0.56600
O217        O  0.44526073  0.20138117  0.06325995    -0.46700
O218        O  0.42808488  0.15990749  0.00826034    -0.53000
C219        C  0.39646886  0.16789986  0.06562956     0.87000
O220        O  0.42950030  0.12250094  0.10865216    -0.54900
O221        O  0.44943418  0.17138124  0.10456714    -0.58200
In222      In  0.49575327  0.18244151  0.87657509     1.36900
C223        C  0.51343915  0.12808959  0.86559603     0.79500
O224        O  0.47114923  0.18847405  0.84457274    -0.59000
O225        O  0.49680455  0.19629673  0.82324461    -0.49900
C226        C  0.47873270  0.16728910  0.93261721     0.72100
O227        O  0.49555430  0.16908440  0.93013043    -0.44700
C228        C  0.51244679  0.23849395  0.88720982     0.76900
O229        O  0.49720519  0.13165966  0.85776459    -0.56600
O230        O  0.52031828  0.21407257  0.87641862    -0.46700
O231        O  0.52052774  0.15211612  0.87919972    -0.53000
C232        C  0.48004572  0.19611211  0.81926274     0.87000
O233        O  0.47037959  0.17367324  0.90641250    -0.54900
O234        O  0.49594362  0.23431382  0.89285280    -0.58200
In235      In  0.43056451  0.46789141  0.18376551     1.36900
C236        C  0.44546156  0.46643309  0.24356126     0.79500
O237        O  0.40303422  0.45919933  0.20601143    -0.59000
O238        O  0.40614665  0.45302976  0.15469470    -0.49900
C239        C  0.43163626  0.02993893  0.15919066     0.72100
O240        O  0.42596344  0.02546057  0.18818605    -0.44700
C241        C  0.45433496  0.42974489  0.15460024     0.76900
O242        O  0.44593064  0.49093028  0.22537682    -0.56600
O243        O  0.44072412  0.41925355  0.16969539    -0.46700
O244        O  0.43683814  0.44306301  0.23166149    -0.53000
C245        C  0.39574051  0.45198999  0.17902497     0.87000
O246        O  0.43159386  0.50124185  0.14056736    -0.54900
O247        O  0.45555750  0.45978483  0.15360160    -0.58200
In248      In  0.43497230  0.38967205  0.56655667     1.36900
C249        C  0.44998736  0.38752979  0.50672840     0.79500
O250        O  0.40639337  0.37253728  0.55959571    -0.59000
O251        O  0.41147601  0.42251533  0.56146117    -0.49900
C252        C  0.43672331  0.34093367  0.60912474     0.72100
O253        O  0.43561393  0.33696232  0.57837901    -0.44700
C254        C  0.45416514  0.43661020  0.59316327     0.76900
O255        O  0.45426676  0.36858492  0.52956455    -0.56600
O256        O  0.43746151  0.43399457  0.59736808    -0.46700
O257        O  0.43726036  0.40598018  0.51378545    -0.53000
C258        C  0.39997841  0.40039032  0.55905844     0.87000
O259        O  0.43698337  0.36979130  0.61807720    -0.54900
O260        O  0.46115993  0.41431305  0.57680832    -0.58200
In261      In  0.49069339  0.42853887  0.37290909     1.36900
C262        C  0.51528758  0.38811956  0.35069736     0.79500
O263        O  0.47219936  0.40816913  0.33428619    -0.59000
O264        O  0.47585670  0.45850779  0.33543086    -0.49900
C265        C  0.46946842  0.41866034  0.42514814     0.72100
O266        O  0.48096229  0.39861515  0.41582953    -0.44700
C267        C  0.51409349  0.47251700  0.39343633     0.76900
O268        O  0.50222341  0.37891170  0.36821193    -0.56600
O269        O  0.50423929  0.47673152  0.36854003    -0.46700
O270        O  0.51533919  0.41747406  0.34373453    -0.53000
C271        C  0.46851402  0.43484072  0.32151530     0.87000
O272        O  0.46875853  0.44362450  0.40769489    -0.54900
O273        O  0.51119970  0.44674958  0.40883832    -0.58200
In274      In  0.57110737  0.02306148  0.82406053     1.36900
C275        C  0.55156526  0.06873170  0.85256619     0.79500
O276        O  0.59502105  0.04180892  0.79637053    -0.59000
O277        O  0.59805812  0.03142765  0.84733353    -0.49900
C278        C  0.57243864  0.47516212  0.83288836     0.72100
O279        O  0.57280636  0.50100694  0.84887964    -0.44700
C280        C  0.55515978  0.02020983  0.76561043     0.76900
O281        O  0.54467523  0.04454089  0.83904711    -0.56600
O282        O  0.56731165  0.04036492  0.77230542    -0.46700
O283        O  0.56842832  0.06868273  0.85331325    -0.53000
C284        C  0.60516952  0.04191381  0.82124483     0.87000
O285        O  0.57287327  0.47889232  0.80212314    -0.54900
O286        O  0.55176994  0.00042636  0.78830112    -0.58200
In287      In  0.56848831  0.09906080  0.43207658     1.36900
C288        C  0.54933218  0.05047144  0.40758176     0.79500
O289        O  0.59389286  0.08077753  0.40982161    -0.59000
O290        O  0.59491660  0.09860559  0.45879446    -0.49900
C291        C  0.56915222  0.15534483  0.40034843     0.72100
O292        O  0.56597506  0.12918439  0.38593315    -0.44700
C293        C  0.55246442  0.09736545  0.49040839     0.76900
O294        O  0.56590163  0.04885616  0.41319838    -0.56600
O295        O  0.56578969  0.08021812  0.48342939    -0.46700
O296        O  0.54257509  0.07759539  0.41281886    -0.53000
C297        C  0.60323324  0.08580258  0.43524582     0.87000
O298        O  0.57189856  0.15270036  0.43081318    -0.54900
O299        O  0.54779945  0.11653139  0.46802099    -0.58200
In300      In  0.51713223  0.05540278  0.62836796     1.36900
C301        C  0.49755740  0.10619985  0.64377538     0.79500
O302        O  0.51306128  0.00508952  0.61021635    -0.59000
O303        O  0.49046877  0.02947766  0.62916264    -0.49900
C304        C  0.53588720  0.06608358  0.57346805     0.72100
O305        O  0.52267995  0.08299869  0.58155159    -0.44700
C306        C  0.53734617  0.04607799  0.68149053     0.76900
O307        O  0.51275432  0.10108562  0.65629867    -0.56600
O308        O  0.52283353  0.03092992  0.67683660    -0.46700
O309        O  0.49262194  0.08589458  0.62261157    -0.53000
C310        C  0.49645300  0.00447702  0.61594077     0.87000
O311        O  0.53941746  0.04388301  0.59328357    -0.54900
O312        O  0.54139304  0.06574123  0.65912338    -0.58200
In313      In  0.07590203  0.09004553  0.91954435     1.36900
C314        C  0.05359786  0.04829158  0.89129107     0.79500
O315        O  0.10448611  0.10489327  0.92958378    -0.59000
O316        O  0.09924556  0.05712740  0.91412050    -0.49900
C317        C  0.07414090  0.14349105  0.88366454     0.72100
O318        O  0.07524295  0.11603941  0.87111875    -0.44700
C319        C  0.06426728  0.08552805  0.98136243     0.76900
O320        O  0.04837225  0.07035960  0.90998645    -0.56600
O321        O  0.07722890  0.06941834  0.97068179    -0.46700
O322        O  0.07028065  0.04800942  0.88618145    -0.53000
C323        C  0.11078873  0.07779556  0.92251529     0.87000
O324        O  0.07407565  0.14376501  0.91471321    -0.54900
O325        O  0.05781709  0.10510548  0.96094181    -0.58200
In326      In  0.06322985  0.02481328  0.30655175     1.36900
C327        C  0.04143792  0.06916000  0.33065485     0.79500
O328        O  0.08590492  0.05941513  0.31669222    -0.59000
O329        O  0.09239316  0.01350846  0.29827314    -0.49900
C330        C  0.06953651  0.47413007  0.32838234     0.72100
O331        O  0.06689202  0.49944551  0.34452078    -0.44700
C332        C  0.04879777  0.02101159  0.24675184     0.76900
O333        O  0.05119792  0.07366452  0.30575338    -0.56600
O334        O  0.06449696  0.03147167  0.25162002    -0.46700
O335        O  0.04335314  0.04228005  0.34435354    -0.53000
C336        C  0.09802415  0.04046693  0.30766209     0.87000
O337        O  0.07119302  0.47824595  0.29772648    -0.54900
O338        O  0.04099463  0.01045707  0.27209208    -0.58200
In339      In  0.01492997  0.06412185  0.10905812     1.36900
C340        C  0.99580120  0.11506266  0.12702245     0.79500
O341        O  0.99075364  0.03201512  0.11502838    -0.59000
O342        O  0.01115413  0.01750399  0.08199082    -0.49900
C343        C  0.03169956  0.08193699  0.05385747     0.72100
O344        O  0.01617377  0.09124822  0.06114939    -0.44700
C345        C  0.03518600  0.04839224  0.16070445     0.76900
O346        O  0.99003358  0.09426643  0.10716933    -0.56600
O347        O  0.01975006  0.03675397  0.15591798    -0.46700
O348        O  0.01142261  0.10995413  0.13765010    -0.53000
C349        C  0.99604475  0.01145973  0.09462106     0.87000
O350        O  0.03868901  0.06344139  0.07474366    -0.54900
O351        O  0.04036020  0.06794907  0.13895468    -0.58200
In352      In  0.93996848  0.40916884  0.05096899     1.36900
C353        C  0.95455217  0.40771210  0.99102933     0.79500
O354        O  0.91122040  0.39348553  0.04359274    -0.59000
O355        O  0.91659641  0.44304769  0.04944794    -0.49900
C356        C  0.94189615  0.35833054  0.09060588     0.72100
O357        O  0.94046461  0.35597255  0.05975357    -0.44700
C358        C  0.96057198  0.45359904  0.07860470     0.76900
O359        O  0.95883721  0.38843198  0.01356353    -0.56600
O360        O  0.94438317  0.44946406  0.08666722    -0.46700
O361        O  0.94193976  0.42640209  0.99841025    -0.53000
C362        C  0.90493044  0.42132120  0.04591820     0.87000
O363        O  0.94260868  0.38664768  0.10112279    -0.54900
O364        O  0.96633482  0.43433079  0.05735840    -0.58200
In365      In  0.93691698  0.45363205  0.66041594     1.36900
C366        C  0.95068796  0.44771330  0.72050966     0.79500
O367        O  0.91035751  0.45761347  0.68600700    -0.59000
O368        O  0.91106300  0.43245271  0.64074429    -0.49900
C369        C  0.93141606  0.02028621  0.64372015     0.72100
O370        O  0.92310670  0.01450570  0.67010568    -0.44700
C371        C  0.96121441  0.41449263  0.63559535     0.76900
O372        O  0.95070262  0.47418763  0.70527891    -0.56600
O373        O  0.94516862  0.40575730  0.64071772    -0.46700
O374        O  0.94302984  0.42502104  0.70557190    -0.53000
C375        C  0.90171664  0.44225588  0.66452505     0.87000
O376        O  0.93637587  0.47917955  0.61176909    -0.54900
O377        O  0.96443007  0.44368165  0.64106589    -0.58200
In378      In  0.99444222  0.45033315  0.85737058     1.36900
C379        C  0.01430199  0.50094986  0.87476249     0.79500
O380        O  0.96838017  0.45592509  0.88491442    -0.59000
O381        O  0.98789691  0.42484929  0.90501773    -0.49900
C382        C  0.97610826  0.46063826  0.80155434     0.72100
O383        O  0.98152615  0.48291793  0.81983860    -0.44700
C384        C  0.01842695  0.40380119  0.84899688     0.76900
O385        O  0.00147165  0.49041549  0.89203585    -0.56600
O386        O  0.00176101  0.39814948  0.85007411    -0.46700
O387        O  0.01670392  0.48615595  0.84808336    -0.53000
C388        C  0.97256526  0.43713186  0.90791467     0.87000
O389        O  0.98004160  0.43305443  0.81170789    -0.54900
O390        O  0.02263853  0.43285744  0.85198818    -0.58200
In391      In  0.06829199  0.28314343  0.81744534     1.36900
C392        C  0.04282743  0.32436533  0.83534996     0.79500
O393        O  0.09185370  0.30295463  0.84563991    -0.59000
O394        O  0.09603624  0.29166842  0.79551481    -0.49900
C395        C  0.06960347  0.23064838  0.85494219     0.72100
O396        O  0.06624356  0.25794928  0.86646851    -0.44700
C397        C  0.05633739  0.27585838  0.75596112     0.76900
O398        O  0.03979425  0.29479660  0.83243716    -0.56600
O399        O  0.06372719  0.30132632  0.76601571    -0.46700
O400        O  0.05894937  0.33246077  0.83055909    -0.53000
C401        C  0.10271670  0.30212101  0.82197595     0.87000
O402        O  0.07201078  0.23010929  0.82418552    -0.54900
O403        O  0.05594761  0.25342760  0.77684330    -0.58200
In404      In  0.06540894  0.34785536  0.41977156     1.36900
C405        C  0.04214971  0.30701817  0.39252727     0.79500
O406        O  0.08821948  0.32320359  0.39399255    -0.59000
O407        O  0.09352985  0.34476594  0.44023232    -0.49900
C408        C  0.06796666  0.40573649  0.39182365     0.72100
O409        O  0.06663283  0.38025888  0.37540526    -0.44700
C410        C  0.04999320  0.34520887  0.47919025     0.76900
O411        O  0.04106587  0.33686864  0.38870183    -0.56600
O412        O  0.06432855  0.33078465  0.47240910    -0.46700
O413        O  0.05545748  0.29804542  0.40925260    -0.53000
C414        C  0.09953574  0.32876437  0.41636887     0.87000
O415        O  0.06816876  0.40166108  0.42260732    -0.54900
O416        O  0.04406140  0.36246972  0.45618140    -0.58200
In417      In  0.01572319  0.29765367  0.61667899     1.36900
C418        C  0.98855810  0.33844508  0.62379823     0.79500
O419        O  0.01253135  0.25431368  0.58408420    -0.59000
O420        O  0.99528397  0.25870753  0.62539536    -0.49900
C421        C  0.03526177  0.31300268  0.56369038     0.72100
O422        O  0.01949990  0.32300570  0.56807090    -0.44700
C423        C  0.03526314  0.29745063  0.67251068     0.76900
O424        O  0.00438527  0.34757819  0.61768100    -0.56600
O425        O  0.02891420  0.27224291  0.66003988    -0.46700
O426        O  0.98667229  0.30862772  0.62654845    -0.53000
C427        C  0.99942231  0.24298443  0.60007675     0.87000
O428        O  0.04099201  0.29496214  0.58629163    -0.54900
O429        O  0.03176505  0.32236978  0.65646209    -0.58200
In430      In  0.93656257  0.22110656  0.16231526     1.36900
C431        C  0.94857596  0.22589416  0.22384787     0.79500
O432        O  0.90771567  0.23734627  0.16071215    -0.59000
O433        O  0.91263230  0.18793437  0.16748788    -0.49900
C434        C  0.94050665  0.27229990  0.12360818     0.72100
O435        O  0.93863002  0.27443069  0.15440811    -0.44700
C436        C  0.95763651  0.17547253  0.13739469     0.76900
O437        O  0.95404324  0.24384586  0.20091164    -0.56600
O438        O  0.96255044  0.19386989  0.16022544    -0.46700
O439        O  0.93607883  0.20688179  0.21585640    -0.53000
C440        C  0.90113538  0.20968677  0.16403453     0.87000
O441        O  0.94069511  0.24404883  0.11275817    -0.54900
O442        O  0.94210340  0.18092104  0.12653861    -0.58200
In443      In  0.93820628  0.14605981  0.55256347     1.36900
C444        C  0.94911726  0.15019751  0.49016813     0.79500
O445        O  0.90936425  0.13245225  0.54235074    -0.59000
O446        O  0.91518413  0.18088966  0.55360856    -0.49900
C447        C  0.94049597  0.09032218  0.58460621     0.72100
O448        O  0.94775463  0.09524964  0.55704633    -0.44700
C449        C  0.96106914  0.18353312  0.58571827     0.76900
O450        O  0.94759904  0.12388885  0.50522481    -0.56600
O451        O  0.96579230  0.16643208  0.56181684    -0.46700
O452        O  0.94425898  0.17428384  0.50650314    -0.53000
C453        C  0.90336804  0.16022257  0.54675525     0.87000
O454        O  0.93244906  0.11419799  0.59633438    -0.54900
O455        O  0.94484681  0.18024948  0.59385797    -0.58200
In456      In  0.98989540  0.18889780  0.35661641     1.36900
C457        C  0.01224284  0.14390293  0.33572469     0.79500
O458        O  0.96715583  0.17233928  0.32383271    -0.59000
O459        O  0.97877164  0.21791674  0.31461668    -0.49900
C460        C  0.96941766  0.18316509  0.41022361     0.72100
O461        O  0.97662433  0.15955891  0.39636381    -0.44700
C462        C  0.01441890  0.23113462  0.37678636     0.76900
O463        O  0.01033082  0.17019015  0.32087865    -0.56600
O464        O  0.00211708  0.23846552  0.35684565    -0.46700
O465        O  0.00223817  0.14013375  0.36046876    -0.53000
C466        C  0.96730044  0.19719790  0.30618601     0.87000
O467        O  0.97212687  0.20960307  0.39599195    -0.54900
O468        O  0.01398476  0.20253521  0.38658855    -0.58200
In469      In  0.81858873  0.40063093  0.65769538     1.36900
C470        C  0.81007949  0.40206831  0.72136318     0.79500
O471        O  0.84191271  0.41458332  0.62471227    -0.59000
O472        O  0.84627004  0.41258058  0.67616762    -0.49900
C473        C  0.81922657  0.34313102  0.62915808     0.72100
O474        O  0.82322020  0.34741332  0.65899295    -0.44700
C475        C  0.79158712  0.43773019  0.63730335     0.76900
O476        O  0.80774772  0.37766789  0.70352246    -0.56600
O477        O  0.80780905  0.44662691  0.63609071    -0.46700
O478        O  0.81747786  0.42555580  0.70697644    -0.53000
C479        C  0.85290754  0.41752497  0.64808501     0.87000
O480        O  0.81450566  0.36812379  0.61406683    -0.54900
O481        O  0.78929567  0.40952012  0.64747713    -0.58200
In482      In  0.82395832  0.47390623  0.05570049     1.36900
C483        C  0.81166832  0.47352456  0.99384195     0.79500
O484        O  0.85271971  0.49070957  0.04949323    -0.59000
O485        O  0.84782331  0.44098497  0.05424536    -0.49900
C486        C  0.81821286  0.01940360  0.08173789     0.72100
O487        O  0.81642203  0.02170379  0.05089560    -0.44700
C488        C  0.80196024  0.43059406  0.08271297     0.76900
O489        O  0.80915600  0.49663174  0.01320833    -0.56600
O490        O  0.81808069  0.43388154  0.09168619    -0.46700
O491        O  0.82123943  0.45146719  0.00553101    -0.53000
C492        C  0.85927099  0.46302932  0.05059285     0.87000
O493        O  0.82151633  0.49679109  0.10573171    -0.54900
O494        O  0.79694220  0.45040114  0.06119246    -0.58200
In495      In  0.77199814  0.43386072  0.85846949     1.36900
C496        C  0.74772858  0.47709226  0.84057663     0.79500
O497        O  0.79242172  0.45575504  0.82300489    -0.59000
O498        O  0.78401526  0.40788970  0.81559954    -0.49900
C499        C  0.79242535  0.44136065  0.91253891     0.72100
O500        O  0.78363390  0.46382111  0.89980814    -0.44700
C501        C  0.74928305  0.38532980  0.87068747     0.76900
O502        O  0.75627335  0.47908302  0.86733199    -0.56600
O503        O  0.76437301  0.38145613  0.85743480    -0.46700
O504        O  0.75195516  0.45362543  0.82279895    -0.53000
C505        C  0.79337152  0.43102230  0.80534561     0.87000
O506        O  0.79108688  0.41522346  0.89735028    -0.54900
O507        O  0.74621205  0.41367613  0.87946258    -0.58200
In508      In  0.68514266  0.34273654  0.28763172     1.36900
C509        C  0.70760242  0.30158574  0.31581257     0.79500
O510        O  0.66005102  0.32129284  0.31005289    -0.59000
O511        O  0.65881108  0.33734705  0.26066824    -0.49900
C512        C  0.68349222  0.40041790  0.31532303     0.72100
O513        O  0.68412362  0.37479538  0.33185540    -0.44700
C514        C  0.70385997  0.34495337  0.23200242     0.76900
O515        O  0.70586302  0.32984060  0.32589964    -0.56600
O516        O  0.69213188  0.32377357  0.23784908    -0.46700
O517        O  0.69715991  0.29392919  0.29275904    -0.53000
C518        C  0.65068371  0.32443994  0.28444269     0.87000
O519        O  0.68315002  0.39649108  0.28449698    -0.54900
O520        O  0.70550461  0.36596575  0.25405531    -0.58200
In521      In  0.68546642  0.28883910  0.90959183     1.36900
C522        C  0.70657913  0.33735085  0.89071579     0.79500
O523        O  0.66111106  0.30528296  0.88174556    -0.59000
O524        O  0.65901885  0.30010652  0.93367719    -0.49900
C525        C  0.68230222  0.23150484  0.88129324     0.72100
O526        O  0.68603247  0.25655340  0.86509145    -0.44700
C527        C  0.70384702  0.28166438  0.96495301     0.76900
O528        O  0.70913769  0.30895755  0.88138362    -0.56600
O529        O  0.68821325  0.29319935  0.96444733    -0.46700
O530        O  0.69246518  0.34124046  0.90717519    -0.53000
C531        C  0.65135326  0.30757108  0.90702280     0.87000
O532        O  0.68017154  0.23587159  0.91174668    -0.54900
O533        O  0.70940031  0.27150565  0.93765140    -0.58200
In534      In  0.74641456  0.31377983  0.09827367     1.36900
C535        C  0.76395307  0.36879083  0.08854953     0.79500
O536        O  0.77360498  0.29219668  0.08878939    -0.59000
O537        O  0.75472848  0.26451381  0.11556587    -0.49900
C538        C  0.72693143  0.31747368  0.15302541     0.72100
O539        O  0.73766765  0.33941724  0.14438410    -0.44700
C540        C  0.72393107  0.30407300  0.04821979     0.76900
O541        O  0.75110448  0.35965764  0.07054317    -0.56600
O542        O  0.73972822  0.29336980  0.04836968    -0.46700
O543        O  0.76748741  0.35029079  0.11230375    -0.53000
C544        C  0.77035120  0.26646230  0.10384484     0.87000
O545        O  0.72663698  0.29352588  0.13432424    -0.54900
O546        O  0.71985379  0.32021772  0.07317451    -0.58200
In547      In  0.82010705  0.15380268  0.15787677     1.36900
C548        C  0.80807279  0.15334399  0.21961802     0.79500
O549        O  0.84862707  0.14002851  0.16938415    -0.59000
O550        O  0.84384259  0.18781103  0.15453256    -0.49900
C551        C  0.81915532  0.10465142  0.11633376     0.72100
O552        O  0.81823978  0.10126937  0.14716062    -0.44700
C553        C  0.79470548  0.19116817  0.13294309     0.76900
O554        O  0.80869557  0.12838167  0.20231359    -0.56600
O555        O  0.81124264  0.19770230  0.13036455    -0.46700
O556        O  0.81445333  0.17804060  0.20595302    -0.53000
C557        C  0.85518717  0.16728548  0.16346939     0.87000
O558        O  0.82068234  0.13325798  0.10665746    -0.54900
O559        O  0.79124177  0.16480977  0.14684007    -0.58200
In560      In  0.82370834  0.21861531  0.53689220     1.36900
C561        C  0.81117482  0.21716130  0.47535645     0.79500
O562        O  0.85299604  0.23225861  0.53362815    -0.59000
O563        O  0.84644490  0.18447730  0.54674344    -0.49900
C564        C  0.81983164  0.27557747  0.56524798     0.72100
O565        O  0.81728488  0.27126048  0.53483801    -0.44700
C566        C  0.80252218  0.17641723  0.56751215     0.76900
O567        O  0.80140598  0.22275132  0.49997466    -0.56600
O568        O  0.81138891  0.16947628  0.54210470    -0.46700
O569        O  0.82757862  0.21381342  0.48195151    -0.53000
C570        C  0.85863626  0.20487357  0.54120489     0.87000
O571        O  0.82447778  0.25085708  0.58093503    -0.54900
O572        O  0.80512660  0.20436534  0.57805414    -0.58200
In573      In  0.76256602  0.18855967  0.34817392     1.36900
C574        C  0.73900479  0.23041687  0.32560583     0.79500
O575        O  0.78150328  0.20973964  0.31093740    -0.59000
O576        O  0.77743380  0.15940474  0.31049142    -0.49900
C577        C  0.77823524  0.20728494  0.40384829     0.72100
O578        O  0.76158309  0.20914788  0.39900335    -0.44700
C579        C  0.74453194  0.13582662  0.36612230     0.76900
O580        O  0.74897625  0.23634568  0.35002271    -0.56600
O581        O  0.73733486  0.15928792  0.35199669    -0.46700
O582        O  0.74145919  0.20354758  0.31234816    -0.53000
C583        C  0.78499427  0.18340127  0.29744250     0.87000
O584        O  0.78706105  0.19646973  0.37985959    -0.54900
O585        O  0.76118936  0.13887064  0.37062039    -0.58200
In586      In  0.68266566  0.10382020  0.79304097     1.36900
C587        C  0.70406346  0.06154527  0.82201137     0.79500
O588        O  0.65497314  0.09952074  0.77078967    -0.59000
O589        O  0.65954057  0.07898883  0.81777027    -0.49900
C590        C  0.68069572  0.16204994  0.81947596     0.72100
O591        O  0.68282353  0.13702069  0.83649109    -0.44700
C592        C  0.70059604  0.10519470  0.73621110     0.76900
O593        O  0.69305668  0.05421674  0.79971059    -0.56600
O594        O  0.68814285  0.08539007  0.74210203    -0.46700
O595        O  0.70406000  0.09069655  0.82997524    -0.53000
C596        C  0.64867878  0.08353459  0.79452971     0.87000
O597        O  0.67900709  0.15720631  0.78897612    -0.54900
O598        O  0.70347683  0.12505131  0.75893332    -0.58200
In599      In  0.68426192  0.03695793  0.41722002     1.36900
C600        C  0.70517944  0.08020751  0.38723666     0.79500
O601        O  0.65885714  0.05441608  0.44110936    -0.59000
O602        O  0.65825377  0.04321129  0.39019801    -0.49900
C603        C  0.68447347  0.46822347  0.37939854     0.72100
O604        O  0.68654504  0.49418623  0.36383346    -0.44700
C605        C  0.69871466  0.03637175  0.47715079     0.76900
O606        O  0.68835599  0.08214420  0.38808116    -0.56600
O607        O  0.68994965  0.05987708  0.46624336    -0.46700
O608        O  0.71141173  0.05535797  0.40049759    -0.53000
C609        C  0.64978483  0.05315495  0.41490179     0.87000
O610        O  0.68323640  0.47141017  0.41017543    -0.54900
O611        O  0.69943885  0.01275296  0.45796941    -0.58200
In612      In  0.74493243  0.06785439  0.60626768     1.36900
C613        C  0.77080483  0.10566641  0.58302176     0.79500
O614        O  0.76443016  0.04924196  0.64353938    -0.59000
O615        O  0.75652508  0.01841598  0.60452852    -0.49900
C616        C  0.72222445  0.07700127  0.65594141     0.72100
O617        O  0.73380051  0.09775708  0.64767926    -0.44700
C618        C  0.72272636  0.06495040  0.55506564     0.76900
O619        O  0.76060754  0.11406207  0.60627282    -0.56600
O620        O  0.72951739  0.04033519  0.56800725    -0.46700
O621        O  0.76754819  0.07828278  0.57145919    -0.53000
C622        C  0.76608137  0.02240387  0.62985827     0.87000
O623        O  0.72209288  0.05214056  0.63845960    -0.54900
O624        O  0.72706925  0.09100465  0.56865513    -0.58200
C625        C  0.70809208  0.03657023  0.50909727    -0.14500
C626        C  0.71102201  0.06382906  0.52580948    -0.29700
H627        H  0.71397218  0.01429701  0.51764156     0.14500
H628        H  0.70565725  0.08628512  0.51663321     0.15100
C629        C  0.70999416  0.08048944  0.68420382    -0.14500
C630        C  0.71142451  0.10465979  0.70580620    -0.29700
H631        H  0.70020721  0.06146921  0.68839834     0.14500
H632        H  0.72151150  0.12328598  0.70222028     0.15100
C633        C  0.73420818  0.10752916  0.37721678    -0.14500
C634        C  0.71634766  0.10582153  0.37279719    -0.29700
H635        H  0.74117224  0.08875284  0.39054610     0.14500
H636        H  0.70943514  0.12505349  0.36006379     0.15100
C637        C  0.78951560  0.15445150  0.58310558    -0.14500
C638        C  0.78528502  0.12606653  0.56971230    -0.29700
H639        H  0.78251319  0.16263821  0.60496338     0.14500
H640        H  0.79228555  0.11787207  0.54784906     0.15100
C641        C  0.80395273  0.21330968  0.44177715    -0.14500
C642        C  0.78630814  0.21600481  0.43569965    -0.29700
H643        H  0.81307522  0.20616438  0.42228996     0.14500
H644        H  0.77725204  0.22313521  0.45530189     0.15100
C645        C  0.79643465  0.18154033  0.26796297    -0.14500
C646        C  0.79956937  0.15382081  0.25236553    -0.29700
H647        H  0.80134445  0.20395764  0.25753840     0.14500
H648        H  0.79442697  0.13141139  0.26240974     0.15100
C649        C  0.78038542  0.21320287  0.12247642    -0.14500
C650        C  0.78411816  0.24162979  0.10844780    -0.29700
H651        H  0.76660053  0.20692844  0.12866020     0.14500
H652        H  0.79787210  0.24768422  0.10184593     0.15100
C653        C  0.68084256  0.19933303  0.86646043    -0.14500
C654        C  0.68076421  0.19457467  0.83374782    -0.29700
H655        H  0.67994199  0.17892967  0.88307058     0.14500
H656        H  0.68114914  0.21494038  0.81703487     0.15100
C657        C  0.71539743  0.28183171  0.99434395    -0.14500
C658        C  0.71115836  0.29898246  0.02106226    -0.29700
H659        H  0.72840614  0.27031297  0.99271462     0.14500
H660        H  0.69827470  0.31097234  0.02243504     0.15100
C661        C  0.68372684  0.43641244  0.36348589    -0.14500
C662        C  0.68355122  0.43255973  0.33060195    -0.29700
H663        H  0.68335645  0.41549781  0.37946669     0.14500
H664        H  0.68373968  0.45339326  0.31450810     0.15100
C665        C  0.72117679  0.27971879  0.32916392    -0.14500
C666        C  0.72528381  0.25254079  0.31340444    -0.29700
H667        H  0.72834485  0.28659890  0.35138290     0.14500
H668        H  0.71822337  0.24602250  0.29094518     0.15100
C669        C  0.71513403  0.34473750  0.20223534    -0.14500
C670        C  0.71537776  0.31917257  0.18229310    -0.29700
H671        H  0.72384359  0.36520493  0.19739252     0.14500
H672        H  0.70683723  0.29857158  0.18759289     0.15100
C673        C  0.71621901  0.03803239  0.83704518    -0.14500
C674        C  0.73362856  0.49963788  0.83052903    -0.29700
H675        H  0.72544980  0.04603607  0.85609792     0.14500
H676        H  0.70715159  0.99973456  0.80752253     0.15100
C677        C  0.73628361  0.35879085  0.87484557    -0.14500
C678        C  0.71930449  0.36390588  0.88456244    -0.29700
H679        H  0.74073055  0.33461686  0.86951473     0.14500
H680        H  0.71494469  0.38805971  0.89023152     0.15100
C681        C  0.81820873  0.04705868  0.10416635    -0.14500
C682        C  0.81851514  0.07744662  0.09327621    -0.29700
H683        H  0.81850515  0.04216589  0.13045323     0.14500
H684        H  0.81861370  0.08247023  0.06701446     0.15100
C685        C  0.79024868  0.40463116  0.09525132    -0.14500
C686        C  0.77430413  0.39817047  0.08113116    -0.29700
H687        H  0.79549514  0.38887470  0.11423705     0.14500
H688        H  0.76942979  0.41335031  0.06132047     0.15100
C689        C  0.80304333  0.44475452  0.94312317    -0.14500
C690        C  0.80323362  0.47191736  0.96092027    -0.29700
H691        H  0.81004104  0.42374276  0.95217233     0.14500
H692        H  0.79585463  0.49268969  0.95233899     0.15100
C693        C  0.82038238  0.31139064  0.61342365    -0.14500
C694        C  0.81763141  0.30714123  0.58099465    -0.29700
H695        H  0.82414805  0.29118355  0.62880331     0.14500
H696        H  0.81397814  0.32734187  0.56551934     0.15100
C697        C  0.77633433  0.45882897  0.62921708    -0.14500
C698        C  0.77880600  0.48759449  0.61508068    -0.29700
H699        H  0.76290651  0.45107835  0.63624612     0.14500
H700        H  0.78584057  0.00366939  0.66497974     0.15100
C701        C  0.80363415  0.40293364  0.75572781    -0.14500
C702        C  0.80369916  0.42966282  0.77422780    -0.29700
H703        H  0.79710335  0.38136400  0.76500953     0.14500
H704        H  0.81006791  0.45145541  0.76514106     0.15100
C705        C  0.88404983  0.16748990  0.54444795    -0.14500
C706        C  0.87796151  0.19767941  0.54341561    -0.29700
H707        H  0.87464482  0.14750625  0.54307069     0.14500
H708        H  0.88739998  0.21766186  0.54336827     0.15100
C709        C  0.95680122  0.15236661  0.45675039    -0.14500
C710        C  0.95924088  0.18056414  0.44129162    -0.29700
H711        H  0.96156593  0.13041839  0.44549761     0.14500
H712        H  0.95454580  0.20254054  0.45257583     0.15100
C713        C  0.88157956  0.20356852  0.16302838    -0.14500
C714        C  0.87461177  0.17398441  0.16654517    -0.29700
H715        H  0.87277517  0.22373703  0.15842447     0.14500
H716        H  0.88341625  0.15390598  0.17155413     0.05500
C717        C  0.95547341  0.20092028  0.27728678    -0.14500
C718        C  0.95720179  0.22585564  0.25650416    -0.29700
H719        H  0.94629438  0.18138423  0.27143939     0.14500
H720        H  0.96687072  0.24478853  0.26177872     0.15100
C721        C  0.98919323  0.21471771  0.58876660    -0.14500
C722        C  0.97312871  0.20690781  0.60175742    -0.29700
H723        H  0.99407722  0.20217318  0.56717365     0.14500
H724        H  0.96793243  0.22024780  0.62258285     0.15100
C725        C  0.02863517  0.28464652  0.37914135    -0.14500
C726        C  0.02832757  0.25371461  0.38817156    -0.29700
H727        H  0.01835773  0.29401066  0.36282615     0.14500
H728        H  0.03841143  0.24465669  0.40507898     0.15100
C729        C  0.04034195  0.34111384  0.51074778    -0.14500
C730        C  0.04607110  0.32076099  0.53417889    -0.29700
H731        H  0.02768305  0.35353665  0.51385281     0.14500
H732        H  0.05875863  0.30843295  0.53109531     0.15100
C733        C  0.04564048  0.29854700  0.70351762    -0.14500
C734        C  0.04803327  0.27283490  0.72299776    -0.29700
H735        H  0.05066093  0.32181520  0.71138957     0.14500
H736        H  0.04263014  0.24965797  0.71571789     0.15100
C737        C  0.03224264  0.37916001  0.84426550    -0.14500
C738        C  0.02854667  0.34768056  0.84261758    -0.29700
H739        H  0.04602824  0.38748632  0.84159002     0.14500
H740        H  0.01482679  0.33906318  0.84538970     0.15100
C741        C  0.93219971  0.05265740  0.62909477    -0.14500
C742        C  0.94106669  0.05874240  0.60093961    -0.29700
H743        H  0.92487068  0.07166900  0.64127895     0.14500
H744        H  0.94833415  0.03968055  0.58870563     0.15100
C745        C  0.88232387  0.43592922  0.66793271    -0.14500
C746        C  0.87204924  0.42544309  0.64296304    -0.29700
H747        H  0.87628841  0.44027170  0.69186248     0.14500
H748        H  0.87774951  0.42257016  0.61852373     0.15100
C749        C  0.97553617  0.39234245  0.62589811    -0.14500
C750        C  0.97340478  0.36048817  0.62811849    -0.29700
H751        H  0.98861149  0.40246963  0.61984264     0.14500
H752        H  0.96044696  0.35033247  0.63495961     0.15100
C753        C  0.95937975  0.44264371  0.75269533    -0.14500
C754        C  0.96626246  0.46670118  0.77064480    -0.29700
H755        H  0.96049201  0.41812516  0.76148470     0.14500
H756        H  0.96484996  0.49131509  0.76233821     0.15100
C757        C  0.94223184  0.33046030  0.11296303    -0.14500
C758        C  0.94185572  0.30030841  0.10154515    -0.29700
H759        H  0.94226025  0.33486954  0.13932116     0.14500
H760        H  0.94200932  0.29596827  0.07517973     0.15100
C761        C  0.88544966  0.42750732  0.04561292    -0.14500
C762        C  0.87875396  0.45720920  0.04823520    -0.29700
H763        H  0.87640272  0.40700119  0.04428027     0.14500
H764        H  0.88777051  0.47778326  0.04908502     0.15100
C765        C  0.96450267  0.40946095  0.95964714    -0.14500
C766        C  0.96066715  0.43129993  0.93639830    -0.29700
H767        H  0.97611923  0.39410818  0.95676913     0.14500
H768        H  0.94896396  0.44646590  0.93909811     0.15100
C769        C  0.98515511  0.14290224  0.13754150    -0.14500
C770        C  0.96885603  0.14915847  0.12486616    -0.29700
H771        H  0.99071022  0.15818414  0.15667820     0.14500
H772        H  0.96333533  0.13398733  0.10560419     0.15100
C773        C  0.97158609  0.47968432  0.09213421    -0.14500
C774        C  0.98769492  0.48713581  0.07929296    -0.29700
H775        H  0.96575515  0.49452121  0.11125102     0.14500
H776        H  0.99326445  0.47293151  0.05941427     0.15100
C777        C  0.07011524  0.44204328  0.34376243    -0.14500
C778        C  0.06886359  0.43786492  0.37654819    -0.29700
H779        H  0.07109267  0.42137062  0.32766196     0.14500
H780        H  0.06816101  0.45855750  0.39266933     0.15100
C781        C  0.02538391  0.11996003  0.32504557    -0.14500
C782        C  0.02849432  0.09306643  0.34230175    -0.29700
H783        H  0.03282547  0.12480868  0.30252521     0.14500
H784        H  0.02106588  0.08808502  0.36480148     0.15100
C785        C  0.04610871  0.04092579  0.18995241    -0.14500
C786        C  0.03965193  0.02277206  0.21466713    -0.29700
H787        H  0.05910775  0.05269712  0.19236591     0.14500
H788        H  0.02641317  0.01181962  0.21262580     0.15100
C789        C  0.07303065  0.17258716  0.86315905    -0.14500
C790        C  0.07071977  0.20187229  0.87601941    -0.29700
H791        H  0.07394047  0.16969716  0.83663266     0.14500
H792        H  0.06954562  0.20483340  0.90250669     0.15100
C793        C  0.04129539  0.02416319  0.87729579    -0.14500
C794        C  0.02577912  0.52775250  0.88585368    -0.29700
H795        H  0.04681666  0.00585947  0.86131289     0.14500
H796        H  0.01853093  0.04115829  0.90250090     0.15100
C797        C  0.04056994  0.09144182  0.02289761    -0.14500
C798        C  0.05680573  0.08035899  0.01451516    -0.29700
H799        H  0.03311342  0.10637736  0.00581130     0.14500
H800        H  0.06406726  0.06476998  0.03125157     0.15100
C801        C  0.62228417  0.07690342  0.43770168    -0.14500
C802        C  0.63082671  0.06258253  0.41271778    -0.29700
H803        H  0.62932984  0.08184233  0.46059052     0.14500
H804        H  0.62380739  0.05798383  0.38971945     0.15100
C805        C  0.54265971  0.09453555  0.52172516    -0.14500
C806        C  0.54642018  0.07116187  0.54330620    -0.29700
H807        H  0.53163985  0.11084046  0.52633821     0.14500
H808        H  0.55729158  0.05461699  0.53836838     0.15100
C809        C  0.63018453  0.07086357  0.79478090    -0.14500
C810        C  0.62377388  0.05390563  0.82041633    -0.29700
H811        H  0.62169948  0.07561711  0.77358433     0.14500
H812        H  0.63214712  0.04972192  0.84189392     0.15100
C813        C  0.54505348  0.02057257  0.73443809    -0.14500
C814        C  0.54864712  0.04231075  0.71093173    -0.29700
H815        H  0.53388312  0.00392621  0.73156595     0.14500
H816        H  0.55992293  0.05874269  0.71380642     0.15100
C817        C  0.52837904  0.49499839  0.40346671    -0.14500
C818        C  0.53895437  0.02224756  0.39673099    -0.29700
H819        H  0.53628027  0.48875744  0.42502605     0.14500
H820        H  0.54646252  0.00094668  0.39025979     0.15100
C821        C  0.46440880  0.46447135  0.60504595    -0.14500
C822        C  0.48211289  0.46743537  0.59954988    -0.29700
H823        H  0.45703084  0.48385665  0.61649501     0.14500
H824        H  0.48950977  0.44795108  0.58833721     0.15100
C825        C  0.45982105  0.38908397  0.47514431    -0.14500
C826        C  0.45794326  0.41403031  0.45440727    -0.29700
H827        H  0.46984620  0.37092540  0.47022813     0.14500
H828        H  0.44831085  0.43267963  0.45999100     0.15100
C829        C  0.45694237  0.43749358  0.29210537    -0.14500
C830        C  0.45488090  0.46515231  0.27555766    -0.29700
H831        H  0.45090041  0.41560360  0.28263293     0.14500
H832        H  0.46132921  0.48690865  0.28444981     0.15100
C833        C  0.54098475  0.09582664  0.86491440    -0.14500
C834        C  0.52336516  0.09850010  0.85841831    -0.29700
H835        H  0.54814319  0.11528025  0.87703156     0.14500
H836        H  0.51628964  0.07934411  0.84565990     0.15100
C837        C  0.43088876  0.06159212  0.14276612    -0.14500
C838        C  0.43558728  0.06580396  0.11100949    -0.29700
H839        H  0.42596259  0.08173659  0.15695601     0.14500
H840        H  0.44025966  0.04555407  0.09668174     0.15100
C841        C  0.45209550  0.15851837  0.96862259    -0.14500
C842        C  0.46998944  0.15874364  0.96412356    -0.29700
H843        H  0.44318912  0.16427864  0.94828831     0.14500
H844        H  0.47877529  0.15378477  0.98486185     0.15100
C845        C  0.43855430  0.28366471  0.62295964    -0.14500
C846        C  0.43746911  0.31419448  0.63297345    -0.29700
H847        H  0.43918663  0.27838495  0.59680032     0.14500
H848        H  0.43698027  0.31970237  0.65908901     0.15100
C849        C  0.48637766  0.13333043  0.65401813    -0.14500
C850        C  0.46898849  0.13538893  0.64554332    -0.29700
H851        H  0.49229463  0.15091667  0.67055049     0.14500
H852        H  0.46292214  0.11728394  0.62980738     0.15100
C853        C  0.45423241  0.20121799  0.78121029    -0.14500
C854        C  0.47190302  0.20406523  0.78722184    -0.29700
H855        H  0.44517934  0.19295347  0.80048350     0.14500
H856        H  0.48095446  0.21110282  0.76743692     0.15100
C857        C  0.46648606  0.22055890  0.10321354    -0.14500
C858        C  0.47238444  0.24496720  0.08436924    -0.29700
H859        H  0.47177314  0.21710226  0.12789516     0.14500
H860        H  0.46712130  0.24793944  0.05959587     0.15100
C861        C  0.46805844  0.40878152  0.14010625    -0.14500
C862        C  0.46817798  0.37729222  0.14665957    -0.29700
H863        H  0.47872904  0.41959265  0.12549503     0.14500
H864        H  0.45772800  0.36685239  0.16208015     0.15100
C865        C  0.56955678  0.18675754  0.38349422    -0.14500
C866        C  0.56861879  0.18967599  0.35056279    -0.29700
H867        H  0.57086624  0.20805486  0.39866886     0.14500
H868        H  0.56781858  0.16838925  0.33527657     0.15100
C869        C  0.62199732  0.30694135  0.30892356    -0.14500
C870        C  0.63181884  0.31371791  0.28204694    -0.29700
H871        H  0.62777903  0.31016852  0.33326850     0.14500
H872        H  0.62577198  0.31212340  0.25774646     0.15100
C873        C  0.52901198  0.33506055  0.34310479    -0.14500
C874        C  0.52968532  0.36695092  0.33932676    -0.29700
H875        H  0.51736777  0.32369881  0.35440730     0.14500
H876        H  0.54108170  0.37804680  0.32692147     0.15100
C877        C  0.54091043  0.31047713  0.19750704    -0.14500
C878        C  0.54583326  0.28245662  0.21100748    -0.29700
H879        H  0.54449296  0.33289600  0.20946686     0.14500
H880        H  0.54201064  0.26003383  0.19931793     0.15100
C881        C  0.57178401  0.43874867  0.88125175    -0.14500
C882        C  0.57135811  0.44301367  0.84841000    -0.29700
H883        H  0.57333183  0.45939063  0.89728547     0.14500
H884        H  0.57020573  0.42233205  0.83233039     0.15100
C885        C  0.62264187  0.32440421  0.93205581    -0.14500
C886        C  0.63248611  0.31814980  0.90508114    -0.29700
H887        H  0.62857113  0.32185473  0.95635694     0.14500
H888        H  0.62662290  0.32113832  0.88077629     0.15100
C889        C  0.53969959  0.27217074  0.88979609    -0.14500
C890        C  0.52180797  0.26928874  0.89339581    -0.29700
H891        H  0.54742453  0.25172678  0.88152869     0.14500
H892        H  0.51407316  0.28921481  0.90285598     0.15100
C893        C  0.54105928  0.35075977  0.01508820    -0.14500
C894        C  0.54272337  0.32723123  0.03750121    -0.29700
H895        H  0.53079288  0.36887443  0.01815924     0.14500
H896        H  0.55279078  0.30882309  0.03406714     0.15100
C897        C  0.12295992  0.07938553  0.30740439    -0.14500
C898        C  0.11726578  0.04882722  0.30798262    -0.29700
H899        H  0.11329655  0.09871962  0.30589507     0.14500
H900        H  0.12694096  0.02948216  0.30707272     0.15100
C901        C  0.20365154  0.10535034  0.21647905    -0.14500
C902        C  0.20260317  0.07981855  0.19644792    -0.29700
H903        H  0.21388318  0.12360507  0.21229396     0.14500
H904        H  0.19291728  0.06084428  0.20156220     0.15100
C905        C  0.13014306  0.07099794  0.92384556    -0.14500
C906        C  0.13641959  0.04124401  0.91936846    -0.29700
H907        H  0.13935523  0.09072493  0.92872070     0.14500
H908        H  0.12715083  0.02142352  0.91530481     0.15100
C909        C  0.20694534  0.04538210  0.03432169    -0.14500
C910        C  0.21091218  0.02138286  0.01364467    -0.29700
H911        H  0.19617195  0.06180676  0.02827565     0.14500
H912        H  0.22194409  0.00538366  0.01928414     0.15100
C913        C  0.21771261  0.50807611  0.34860652    -0.14500
C914        C  0.21271433  0.03840095  0.34436236    -0.29700
H915        H  0.20792823  0.50004358  0.33050298     0.14500
H916        H  0.22036482  0.04539682  0.36599924     0.15100
C917        C  0.37406926  0.43637214  0.55501889    -0.14500
C918        C  0.38054993  0.40646922  0.55677519    -0.29700
H919        H  0.38324862  0.45671882  0.55391610     0.14500
H920        H  0.37141066  0.38607679  0.55783953     0.15100
C921        C  0.29173609  0.46633797  0.47874485    -0.14500
C922        C  0.29069279  0.44237049  0.45687521    -0.29700
H923        H  0.28320218  0.48718620  0.47602810     0.14500
H924        H  0.29881884  0.42109529  0.46026752     0.15100
C925        C  0.36685268  0.43168903  0.20075819    -0.14500
C926        C  0.37661669  0.44332425  0.17557688    -0.29700
H927        H  0.37310792  0.42757009  0.22455130     0.14500
H928        H  0.37060225  0.44542277  0.15129201     0.15100
C929        C  0.27601136  0.47278798  0.15239660    -0.14500
C930        C  0.27426193  0.50211687  0.16540154    -0.29700
H931        H  0.26686147  0.46464500  0.13327784     0.14500
H932        H  0.28304531  0.50975388  0.18531528     0.15100
C933        C  0.28614940  0.43198246  0.29815345    -0.14500
C934        C  0.28654843  0.40570581  0.27908855    -0.29700
H935        H  0.29395850  0.45306118  0.29128304     0.14500
H936        H  0.27863218  0.38464300  0.28556832     0.15100
C937        C  0.27290470  0.37808689  0.60006360    -0.14500
C938        C  0.29029101  0.38296968  0.60757994    -0.29700
H939        H  0.26562271  0.39578514  0.58577175     0.14500
H940        H  0.29753384  0.36521137  0.62187151     0.15100
C941        C  0.17539653  0.19014295  0.39142911    -0.14500
C942        C  0.17627968  0.18856396  0.35835981    -0.29700
H943        H  0.17401028  0.16833921  0.40590584     0.14500
H944        H  0.17753749  0.21050381  0.34405250     0.15100
C945        C  0.12928827  0.31780968  0.44067297    -0.14500
C946        C  0.11814110  0.31674279  0.41465483    -0.29700
H947        H  0.12478150  0.32838793  0.46362390     0.14500
H948        H  0.12245275  0.30540003  0.39196990     0.15100
C949        C  0.21735796  0.37418141  0.41621564    -0.14500
C950        C  0.21558604  0.34492262  0.40295505    -0.29700
H951        H  0.20895831  0.38117987  0.43682561     0.14500
H952        H  0.22430556  0.33766303  0.38289813     0.15100
C953        C  0.20459449  0.26663572  0.53139390    -0.14500
C954        C  0.22243295  0.27033388  0.53510504    -0.29700
H955        H  0.19592895  0.26604509  0.55291753     0.14500
H956        H  0.23106535  0.27079947  0.51352964     0.15100
C957        C  0.19202425  0.43291692  0.88627306    -0.14500
C958        C  0.19036267  0.42768600  0.85375634    -0.29700
H959        H  0.19277943  0.41262231  0.90301829     0.14500
H960        H  0.18926655  0.44792140  0.83700682     0.15100
C961        C  0.13305625  0.31543040  0.80038512    -0.14500
C962        C  0.12167550  0.31223690  0.82587431    -0.29700
H963        H  0.12831406  0.31114872  0.77546727     0.14500
H964        H  0.12639350  0.31715482  0.85068212     0.15100
C965        C  0.21417254  0.30129541  0.70600605    -0.14500
C966        C  0.21373065  0.32858918  0.72344224    -0.29700
H967        H  0.20701810  0.28012912  0.71471458     0.14500
H968        H  0.22114883  0.34953140  0.71490266     0.15100
C969        C  0.23576570  0.26488168  0.85311061    -0.14500
C970        C  0.21788985  0.26581516  0.85758070    -0.29700
H971        H  0.24253902  0.28450404  0.84044435     0.14500
H972        H  0.21096490  0.24560535  0.86891909     0.15100
C973        C  0.22232956  0.09479943  0.88256465    -0.14500
C974        C  0.23636445  0.10539642  0.90033417    -0.29700
H975        H  0.21821904  0.10742110  0.86041197     0.14500
H976        H  0.24010274  0.09303342  0.92287810     0.15100
C977        C  0.31367981  0.30121765  0.13739615    -0.14500
C978        C  0.31600505  0.33150856  0.12712645    -0.29700
H979        H  0.31124464  0.29617462  0.16328116     0.14500
H980        H  0.31859235  0.33651745  0.10127661     0.15100
C981        C  0.37080338  0.20504274  0.06827957    -0.14500
C982        C  0.37710221  0.17502996  0.06657351    -0.29700
H983        H  0.38009669  0.22523824  0.06865744     0.14500
H984        H  0.36776578  0.15495522  0.06501558     0.15100
C985        C  0.28206996  0.15523536  0.11252080    -0.14500
C986        C  0.26628162  0.14907797  0.09772520    -0.29700
H987        H  0.28690662  0.13963727  0.13200714     0.14500
H988        H  0.26192701  0.16379541  0.07715056     0.15100
C989        C  0.29739582  0.20199847  0.95960751    -0.14500
C990        C  0.29422061  0.22576223  0.98097923    -0.29700
H991        H  0.30772313  0.18446799  0.96494657     0.14500
H992        H  0.28385052  0.24325786  0.97581875     0.15100
C993        C  0.32217694  0.04976346  0.63467354    -0.14500
C994        C  0.32177116  0.04883898  0.60160619    -0.29700
H995        H  0.32203655  0.02759654  0.64876523     0.14500
H996        H  0.32177880  0.07098689  0.58748239     0.15100
C997        C  0.37511933  0.15672193  0.69309295    -0.14500
C998        C  0.38185968  0.18498119  0.68307075    -0.29700
H999        H  0.38389268  0.13895894  0.70407773     0.14500
H1000       H  0.37298578  0.20340664  0.67362491     0.15100
C1001       C  0.28597418  0.19842918  0.64389129    -0.14500
C1002       C  0.28439505  0.22810493  0.65603248    -0.29700
H1003       H  0.27703816  0.19010494  0.62451619     0.14500
H1004       H  0.29308352  0.23597395  0.67599263     0.15100
C1005       C  0.29476938  0.13897666  0.77590415    -0.14500
C1006       C  0.29834984  0.16334918  0.79646946    -0.29700
H1007       H  0.28347633  0.12296667  0.78056614     0.14500
H1008       H  0.30958537  0.17941497  0.79150958     0.15100
In1009     In  0.32475186  0.63975572  0.68237916     1.36900
C1010       C  0.30952677  0.63208779  0.74110171     0.79500
O1011       O  0.35328899  0.62752501  0.69499488    -0.59000
O1012       O  0.34792245  0.67422132  0.67686640    -0.49900
C1013       C  0.32620822  0.59012561  0.64220770     0.72100
O1014       O  0.32248676  0.58733366  0.67244257    -0.44700
C1015       C  0.30221552  0.68287780  0.65765712     0.76900
O1016       O  0.30355867  0.61844335  0.71575463    -0.56600
O1017       O  0.31398348  0.68984252  0.67876406    -0.46700
O1018       O  0.32384842  0.64768404  0.73675199    -0.53000
C1019       C  0.35945798  0.65475475  0.68743533     0.87000
O1020       O  0.32962365  0.61833429  0.63267250    -0.54900
O1021       O  0.30237566  0.65419619  0.64832895    -0.58200
In1022     In  0.31861983  0.72334363  0.07068189     1.36900
C1023       C  0.30550559  0.72335996  0.00990255     0.79500
O1024       O  0.34565887  0.72714624  0.04630395    -0.59000
O1025       O  0.34327831  0.69711153  0.08831700    -0.49900
C1026       C  0.32050971  0.77521039  0.10847595     0.72100
O1027       O  0.31797014  0.77681599  0.07775755    -0.44700
C1028       C  0.29289808  0.68486824  0.09448350     0.76900
O1029       O  0.30345715  0.74681689  0.02904001    -0.56600
O1030       O  0.30779556  0.67460269  0.08441158    -0.46700
O1031       O  0.31473408  0.70083350  0.02153990    -0.53000
C1032       C  0.35325368  0.70788578  0.06564654     0.87000
O1033       O  0.32252143  0.74723325  0.11955756    -0.54900
O1034       O  0.29148677  0.71486170  0.09392074    -0.58200
In1035     In  0.27118807  0.67508327  0.87385530     1.36900
C1036       C  0.25132581  0.72475622  0.85552532     0.79500
O1037       O  0.29639432  0.68137089  0.84457390    -0.59000
O1038       O  0.27789766  0.64537365  0.82945144    -0.49900
C1039       C  0.29021006  0.69046235  0.92691407     0.72100
O1040       O  0.27692775  0.70677927  0.91766463    -0.44700
C1041       C  0.25140252  0.62415822  0.89002053     0.76900
O1042       O  0.26574224  0.71738902  0.84132103    -0.56600
O1043       O  0.26525392  0.63245597  0.90560303    -0.46700
O1044       O  0.24708761  0.70691864  0.87944300    -0.53000
C1045       C  0.29268327  0.65944493  0.82442761     0.87000
O1046       O  0.29385406  0.66703057  0.90874240    -0.54900
O1047       O  0.24756748  0.64189049  0.86588649    -0.58200
In1048     In  0.19268193  0.82859938  0.81536693     1.36900
C1049       C  0.21345334  0.78510252  0.84428315     0.79500
O1050       O  0.16312072  0.84168828  0.81348117    -0.59000
O1051       O  0.17016876  0.79291585  0.80926870    -0.49900
C1052       C  0.19516113  0.88120995  0.85244436     0.72100
O1053       O  0.19598093  0.85330705  0.86425959    -0.44700
C1054       C  0.20685822  0.83175401  0.75488976     0.76900
O1055       O  0.21885525  0.80332676  0.82157179    -0.56600
O1056       O  0.19500491  0.81138940  0.76270275    -0.46700
O1057       O  0.19754262  0.78997783  0.85342033    -0.53000
C1058       C  0.15775826  0.81312159  0.81057247     0.87000
O1059       O  0.19321308  0.88227534  0.82157805    -0.54900
O1060       O  0.21059104  0.85155039  0.77725387    -0.58200
In1061     In  0.18136532  0.78675365  0.43957340     1.36900
C1062       C  0.20407169  0.82619824  0.40896023     0.79500
O1063       O  0.15554218  0.80593623  0.41853737    -0.59000
O1064       O  0.15518231  0.78728325  0.46713230    -0.49900
C1065       C  0.18015670  0.72932886  0.41118377     0.72100
O1066       O  0.17918642  0.75507575  0.39493215    -0.44700
C1067       C  0.19754523  0.79406526  0.49746688     0.76900
O1068       O  0.20672223  0.79650979  0.41082267    -0.56600
O1069       O  0.18730291  0.81477434  0.48526671    -0.46700
O1070       O  0.18938169  0.83529484  0.42100225    -0.53000
C1071       C  0.14652242  0.80048885  0.44425898     0.87000
O1072       O  0.18151982  0.73298978  0.44191390    -0.54900
O1073       O  0.19902212  0.76880463  0.48066912    -0.58200
In1074     In  0.25050737  0.79977486  0.62227942     1.36900
C1075       C  0.27275589  0.84517406  0.59974638     0.79500
O1076       O  0.27266709  0.78608407  0.65702604    -0.59000
O1077       O  0.26271701  0.75101085  0.62371737    -0.49900
C1078       C  0.22804660  0.80475189  0.67351985     0.72100
O1079       O  0.23902779  0.82655857  0.66558043    -0.44700
C1080       C  0.23067115  0.78736989  0.56910876     0.76900
O1081       O  0.25853578  0.85183209  0.61509197    -0.56600
O1082       O  0.24227631  0.76836685  0.57998953    -0.46700
O1083       O  0.27522816  0.81575037  0.59537724    -0.53000
C1084       C  0.27385843  0.75796351  0.64601636     0.87000
O1085       O  0.22839505  0.78057240  0.65507370    -0.54900
O1086       O  0.22916064  0.81290254  0.58538438    -0.58200
In1087     In  0.31466971  0.91194722  0.18050187     1.36900
C1088       C  0.29943724  0.91111962  0.23933334     0.79500
O1089       O  0.33997269  0.91239999  0.21063275    -0.59000
O1090       O  0.34049514  0.93625952  0.16452172    -0.49900
C1091       C  0.31739545  0.86112974  0.14115580     0.72100
O1092       O  0.31762855  0.85887750  0.17215208    -0.44700
C1093       C  0.28905139  0.94970311  0.15697102     0.76900
O1094       O  0.30024730  0.88635670  0.22154134    -0.56600
O1095       O  0.30521359  0.95888923  0.15951310    -0.46700
O1096       O  0.30716239  0.93562932  0.22759316    -0.53000
C1097       C  0.34899280  0.92843886  0.19016951     0.87000
O1098       O  0.31585895  0.88927453  0.13039324    -0.54900
O1099       O  0.28628398  0.92087201  0.16474618    -0.58200
In1100     In  0.32064286  0.96340708  0.55032501     1.36900
C1101       C  0.30715427  0.95565190  0.49016506     0.79500
O1102       O  0.34878265  0.97264322  0.53221361    -0.59000
O1103       O  0.34481182  0.93816133  0.57009792    -0.49900
C1104       C  0.32107667  0.50589222  0.60671409     0.72100
O1105       O  0.32391103  0.50863481  0.57625733    -0.44700
C1106       C  0.29699171  0.92358391  0.57781594     0.76900
O1107       O  0.30383741  0.97986564  0.50760981    -0.56600
O1108       O  0.31256674  0.91515413  0.56943151    -0.46700
O1109       O  0.31833685  0.93664429  0.50251416    -0.53000
C1110       C  0.35579433  0.95281155  0.55172222     0.87000
O1111       O  0.32080016  0.99130545  0.59746815    -0.54900
O1112       O  0.29375308  0.95290866  0.57361780    -0.58200
In1113     In  0.25303387  0.94701883  0.36690860     1.36900
C1114       C  0.23000076  0.90315980  0.38940197     0.79500
O1115       O  0.27389484  0.93297919  0.40473947    -0.59000
O1116       O  0.26398795  0.98040346  0.40508044    -0.49900
C1117       C  0.27547756  0.94128519  0.31631255     0.72100
O1118       O  0.26632141  0.91805715  0.32721248    -0.44700
C1119       C  0.22930575  0.98780890  0.34257312     0.76900
O1120       O  0.24290637  0.89602286  0.37076441    -0.56600
O1121       O  0.23867268  0.99375377  0.36770713    -0.46700
O1122       O  0.22930729  0.93223054  0.39722614    -0.53000
C1123       C  0.27429783  0.96027502  0.41798564     0.87000
O1124       O  0.27334548  0.96719313  0.33155839    -0.54900
O1125       O  0.23229784  0.96106736  0.32935105    -0.58200
In1126     In  0.19062646  0.52329046  0.92957358     1.36900
C1127       C  0.21351061  0.56275280  0.89900978     0.79500
O1128       O  0.16850342  0.56011084  0.92565811    -0.59000
O1129       O  0.16115581  0.51192511  0.93495754    -0.49900
C1130       C  0.19446749  0.96852105  0.88201801     0.72100
O1131       O  0.19538940  0.99646878  0.87033613    -0.44700
C1132       C  0.20222511  0.52654539  0.99179460     0.76900
O1133       O  0.21764272  0.54674199  0.92415501    -0.56600
O1134       O  0.19118009  0.54628147  0.97999650    -0.46700
O1135       O  0.19801135  0.55702841  0.88800364    -0.53000
C1136       C  0.15596978  0.54015800  0.93007465     0.87000
O1137       O  0.19193746  0.96733287  0.91271567    -0.54900
O1138       O  0.20679520  0.50473722  0.97220021    -0.58200
In1139     In  0.18131644  0.60324314  0.32042762     1.36900
C1140       C  0.20425505  0.56142949  0.34631957     0.79500
O1141       O  0.15808267  0.58081874  0.34785078    -0.59000
O1142       O  0.15372488  0.59657219  0.29883680    -0.49900
C1143       C  0.17879341  0.66091850  0.34814150     0.72100
O1144       O  0.18165383  0.63573289  0.36445482    -0.44700
C1145       C  0.19714135  0.60486038  0.26153297     0.76900
O1146       O  0.20549302  0.59109036  0.35137465    -0.56600
O1147       O  0.20205920  0.62240740  0.28511504    -0.46700
O1148       O  0.19099855  0.55313794  0.32897587    -0.53000
C1149       C  0.14726608  0.58325080  0.32414485     0.87000
O1150       O  0.17691356  0.65659153  0.31760423    -0.54900
O1151       O  0.18362079  0.58747498  0.26757230    -0.58200
In1152     In  0.23861438  0.56852590  0.12850355     1.36900
C1153       C  0.26083908  0.52497167  0.15319968     0.79500
O1154       O  0.26361910  0.58123485  0.10057805    -0.59000
O1155       O  0.24979142  0.61889450  0.12432206    -0.49900
C1156       C  0.21860585  0.55971743  0.07456167     0.72100
O1157       O  0.22749279  0.53760518  0.08785232    -0.44700
C1158       C  0.21591146  0.57746734  0.17857191     0.76900
O1159       O  0.25051428  0.51918176  0.12930001    -0.56600
O1160       O  0.22815929  0.59717380  0.17119921    -0.46700
O1161       O  0.25917086  0.55245961  0.16545797    -0.53000
C1162       C  0.26327746  0.61051649  0.10771075     0.87000
O1163       O  0.21959634  0.58622774  0.08926872    -0.54900
O1164       O  0.21499634  0.55343418  0.15994076    -0.58200
In1165     In  0.56645639  0.83891157  0.94209037     1.36900
C1166       C  0.54394855  0.79650440  0.91476913     0.79500
O1167       O  0.59044050  0.81245837  0.92233673    -0.59000
O1168       O  0.59401317  0.84086012  0.96501208    -0.49900
C1169       C  0.56820903  0.89630346  0.91351001     0.72100
O1170       O  0.57136250  0.87078528  0.89801274    -0.44700
C1171       C  0.54993588  0.84204865  0.99991743     0.76900
O1172       O  0.54544669  0.82486480  0.90449456    -0.56600
O1173       O  0.56350282  0.82469211  0.99522479    -0.46700
O1174       O  0.55432749  0.78963795  0.93816042    -0.53000
C1175       C  0.60102731  0.82224631  0.94440569     0.87000
O1176       O  0.56451527  0.89242661  0.94350606    -0.54900
O1177       O  0.54516397  0.85837646  0.97534387    -0.58200
In1178     In  0.57061687  0.77850217  0.32283275     1.36900
C1179       C  0.54732954  0.81949111  0.34935232     0.79500
O1180       O  0.59436442  0.79591648  0.35280606    -0.59000
O1181       O  0.59801054  0.78975812  0.30159278    -0.49900
C1182       C  0.57271210  0.71876981  0.34579797     0.72100
O1183       O  0.56769199  0.74203856  0.36327473    -0.44700
C1184       C  0.55367259  0.77782736  0.26498151     0.76900
O1185       O  0.54795964  0.79050957  0.35793588    -0.56600
O1186       O  0.56521473  0.79876583  0.27252832    -0.46700
O1187       O  0.55916728  0.82766592  0.32883831    -0.53000
C1188       C  0.60491954  0.79789610  0.32866057     0.87000
O1189       O  0.57678501  0.72607991  0.31650886    -0.54900
O1190       O  0.55154691  0.75605235  0.28620182    -0.58200
In1191     In  0.50862112  0.81474090  0.13536351     1.36900
C1192       C  0.48506546  0.85814016  0.15472887     0.79500
O1193       O  0.48654762  0.79959817  0.10141307    -0.59000
O1194       O  0.49621629  0.76554507  0.13601712    -0.49900
C1195       C  0.53040573  0.81870050  0.08357615     0.72100
O1196       O  0.52016214  0.84116042  0.09193217    -0.44700
C1197       C  0.53028662  0.80885748  0.18729745     0.76900
O1198       O  0.49791784  0.86501695  0.13566775    -0.56600
O1199       O  0.51989494  0.78673941  0.17792444    -0.46700
O1200       O  0.48484427  0.82966743  0.16500231    -0.53000
C1201       C  0.48522052  0.77179862  0.11327024     0.87000
O1202       O  0.52977119  0.79446828  0.10205834    -0.54900
O1203       O  0.52950885  0.83408998  0.17029022    -0.58200
In1204     In  0.43915279  0.71366476  0.68144870     1.36900
C1205       C  0.45490854  0.71438433  0.74068717     0.79500
O1206       O  0.41602826  0.67912328  0.68514144    -0.59000
O1207       O  0.41040642  0.72854361  0.69020640    -0.49900
C1208       C  0.43981305  0.76512057  0.64206206     0.72100
O1209       O  0.43953212  0.76721316  0.67305627    -0.44700
C1210       C  0.45776740  0.66860747  0.65089969     0.76900
O1211       O  0.45922256  0.73349993  0.71795501    -0.56600
O1212       O  0.44102707  0.67125768  0.64808741    -0.46700
O1213       O  0.44195907  0.69602775  0.73372875    -0.53000
C1214       C  0.40427274  0.70035132  0.68866281     0.87000
O1215       O  0.43986387  0.73685221  0.63133937    -0.54900
O1216       O  0.46521694  0.68998074  0.66813407    -0.58200
In1217     In  0.43431073  0.65460596  0.07203863     1.36900
C1218       C  0.44994508  0.65075091  0.01327217     0.79500
O1219       O  0.40748283  0.67003439  0.05149233    -0.59000
O1220       O  0.41019768  0.66580766  0.10321781    -0.49900
C1221       C  0.43133295  0.59622669  0.09703934     0.72100
O1222       O  0.42856385  0.60196201  0.06691218    -0.44700
C1223       C  0.45752420  0.69595951  0.09860104     0.76900
O1224       O  0.45385971  0.63250765  0.03690576    -0.56600
O1225       O  0.44401899  0.70465638  0.08232722    -0.46700
O1226       O  0.43741878  0.67009903  0.01914741    -0.53000
C1227       C  0.40012287  0.67244959  0.07934368     0.87000
O1228       O  0.43550382  0.62034947  0.11414258    -0.54900
O1229       O  0.45883967  0.66619661  0.10231084    -0.58200
In1230     In  0.49248622  0.67713244  0.87862294     1.36900
C1231       C  0.51391202  0.62878970  0.86170946     0.79500
O1232       O  0.47100264  0.66159687  0.84296893    -0.59000
O1233       O  0.48490543  0.70494761  0.83290171    -0.49900
C1234       C  0.46996918  0.67387838  0.92972731     0.72100
O1235       O  0.48197707  0.65344680  0.92445667    -0.44700
C1236       C  0.51542033  0.72091631  0.90131659     0.76900
O1237       O  0.49862134  0.62446990  0.87424435    -0.56600
O1238       O  0.50522546  0.72627610  0.87710653    -0.46700
O1239       O  0.51803548  0.65774007  0.85695555    -0.53000
C1240       C  0.47293096  0.68529225  0.82403194     0.87000
O1241       O  0.46927685  0.69599883  0.90862345    -0.54900
O1242       O  0.51356063  0.69360225  0.91415900    -0.58200
In1243     In  0.43215844  0.97267620  0.18847771     1.36900
C1244       C  0.44567225  0.97194134  0.24966576     0.79500
O1245       O  0.40382402  0.96318208  0.20624517    -0.59000
O1246       O  0.40967535  0.95499972  0.15599315    -0.49900
C1247       C  0.43020714  0.52620495  0.15780194     0.72100
O1248       O  0.42871847  0.52132957  0.18837069    -0.44700
C1249       C  0.45681642  0.93342628  0.16467766     0.76900
O1250       O  0.44540553  0.99685125  0.23206527    -0.56600
O1251       O  0.44218516  0.92369371  0.17684235    -0.46700
O1252       O  0.43808116  0.94800608  0.23681102    -0.53000
C1253       C  0.39803804  0.95463905  0.17842039     0.87000
O1254       O  0.43780851  0.00525324  0.14547095    -0.54900
O1255       O  0.45851409  0.96343536  0.16314407    -0.58200
In1256     In  0.43652099  0.90351850  0.57078396     1.36900
C1257       C  0.44781029  0.90349773  0.50806240     0.79500
O1258       O  0.40773657  0.88863156  0.57644015    -0.59000
O1259       O  0.41339332  0.93716298  0.56374609    -0.49900
C1260       C  0.43981409  0.85149917  0.60889899     0.72100
O1261       O  0.43852855  0.84978877  0.57792834    -0.44700
C1262       C  0.45610370  0.95035414  0.59726616     0.76900
O1263       O  0.45815514  0.89994873  0.53225445    -0.56600
O1264       O  0.43918981  0.94992491  0.59899031    -0.46700
O1265       O  0.43145755  0.90447068  0.51563248    -0.53000
C1266       C  0.40162925  0.91594647  0.56964542     0.87000
O1267       O  0.43981454  0.87959938  0.62003854    -0.54900
O1268       O  0.46281064  0.92658270  0.58290019    -0.58200
In1269     In  0.49347347  0.93663778  0.37687197     1.36900
C1270       C  0.51706471  0.89301312  0.35709509     0.79500
O1271       O  0.47442821  0.91479578  0.33971268    -0.59000
O1272       O  0.47784387  0.96515010  0.33926565    -0.49900
C1273       C  0.47910934  0.92026293  0.43494389     0.72100
O1274       O  0.49569912  0.92360134  0.43025396    -0.44700
C1275       C  0.51103186  0.99137358  0.38938921     0.76900
O1276       O  0.50674040  0.88835244  0.38128499    -0.56600
O1277       O  0.51869440  0.96629982  0.37977026    -0.46700
O1278       O  0.51492695  0.91943273  0.34257750    -0.53000
C1279       C  0.47041013  0.94105480  0.32634976     0.87000
O1280       O  0.46957630  0.92543366  0.40983547    -0.54900
O1281       O  0.49423571  0.98872824  0.39232758    -0.58200
In1282     In  0.57326333  0.53304378  0.80366266     1.36900
C1283       C  0.55393313  0.58021961  0.83042193     0.79500
O1284       O  0.60114401  0.53915643  0.82550575    -0.59000
O1285       O  0.59634936  0.55676351  0.77736517    -0.49900
C1286       C  0.57286665  0.96540773  0.85185806     0.72100
O1287       O  0.56558238  0.98903161  0.86567458    -0.44700
C1288       C  0.55822471  0.52784315  0.74422435     0.76900
O1289       O  0.54907535  0.55126898  0.83125563    -0.56600
O1290       O  0.57474059  0.52352319  0.74905652    -0.46700
O1291       O  0.56902269  0.58492812  0.81726649    -0.53000
C1292       C  0.60746048  0.55311705  0.80037576     0.87000
O1293       O  0.57924498  0.97123298  0.82370478    -0.54900
O1294       O  0.54930377  0.53338441  0.76995354    -0.58200
In1295     In  0.56917949  0.58531367  0.42635447     1.36900
C1296       C  0.54610356  0.54434858  0.39855138     0.79500
O1297       O  0.59665527  0.58067097  0.40224899    -0.59000
O1298       O  0.59132744  0.55393853  0.44538772    -0.49900
C1299       C  0.57060277  0.64509922  0.40281007     0.72100
O1300       O  0.57092585  0.62078031  0.38442729    -0.44700
C1301       C  0.55542209  0.58793251  0.48684021     0.76900
O1302       O  0.54594042  0.57389372  0.39235954    -0.56600
O1303       O  0.57201040  0.59124981  0.48132041    -0.46700
O1304       O  0.55884979  0.53557152  0.41671242    -0.53000
C1305       C  0.60250541  0.56124741  0.42341047     0.87000
O1306       O  0.56971101  0.63883880  0.43317657    -0.54900
O1307       O  0.54582561  0.58598142  0.46132789    -0.58200
In1308     In  0.50918743  0.55237290  0.61636542     1.36900
C1309       C  0.49381073  0.60745528  0.63088611     0.79500
O1310       O  0.50853512  0.50030771  0.60223359    -0.59000
O1311       O  0.48407071  0.52264355  0.61554641    -0.49900
C1312       C  0.52339574  0.56859377  0.55821523     0.72100
O1313       O  0.50683592  0.56425307  0.56264784    -0.44700
C1314       C  0.52469041  0.53899844  0.67374264     0.76900
O1315       O  0.51046926  0.60322452  0.63399627    -0.56600
O1316       O  0.53341105  0.53900424  0.64701792    -0.46700
O1317       O  0.48518559  0.58378303  0.61960976    -0.53000
C1318       C  0.49181509  0.49750000  0.60627091     0.87000
O1319       O  0.53292550  0.56429405  0.58355397    -0.54900
O1320       O  0.50825488  0.54509726  0.67076901    -0.58200
In1321     In  0.07665622  0.59903125  0.91740895     1.36900
C1322       C  0.05431121  0.55773939  0.88766105     0.79500
O1323       O  0.09988934  0.56500012  0.91636139    -0.59000
O1324       O  0.10534730  0.61370436  0.92779482    -0.49900
C1325       C  0.07550742  0.65320237  0.88213596     0.72100
O1326       O  0.07767832  0.62601613  0.86947764    -0.44700
C1327       C  0.06426087  0.59434556  0.97880329     0.76900
O1328       O  0.04947726  0.57645909  0.91014047    -0.56600
O1329       O  0.07788005  0.57941635  0.96901849    -0.46700
O1330       O  0.07059169  0.56056752  0.87955941    -0.53000
C1331       C  0.11152986  0.58594254  0.92366774     0.87000
O1332       O  0.07392628  0.65289819  0.91307549    -0.54900
O1333       O  0.05758889  0.61314426  0.95778384    -0.58200
In1334     In  0.06656943  0.53148195  0.29999242     1.36900
C1335       C  0.04247932  0.56961668  0.32778279     0.79500
O1336       O  0.09094488  0.55232980  0.32539818    -0.59000
O1337       O  0.09299093  0.54068023  0.27478164    -0.49900
C1338       C  0.06210299  0.97004789  0.33984375     0.72100
O1339       O  0.06505731  0.99660120  0.35377892    -0.44700
C1340       C  0.05112775  0.53226988  0.24078058     0.76900
O1341       O  0.04069299  0.53963216  0.32748659    -0.56600
O1342       O  0.06107741  0.55455722  0.25120102    -0.46700
O1343       O  0.05690092  0.57986935  0.31533041    -0.53000
C1344       C  0.10055925  0.55222629  0.29984699     0.87000
O1345       O  0.05972801  0.97167166  0.30913460    -0.54900
O1346       O  0.04941223  0.50892844  0.26031304    -0.58200
In1347     In  0.01310014  0.57133336  0.10425022     1.36900
C1348       C  0.98770302  0.61420781  0.11763384     0.79500
O1349       O  0.99225899  0.53367458  0.11273617    -0.59000
O1350       O  0.01095893  0.52660103  0.07381888    -0.49900
C1351       C  0.03065324  0.58936908  0.04992575     0.72100
O1352       O  0.01485742  0.59797371  0.05619336    -0.44700
C1353       C  0.03281167  0.56311567  0.15861196     0.76900
O1354       O  0.00410896  0.61939347  0.12343411    -0.56600
O1355       O  0.02246270  0.54176514  0.14757267    -0.46700
O1356       O  0.98439782  0.58745994  0.10478141    -0.53000
C1357       C  0.99732893  0.51636106  0.08913680     0.87000
O1358       O  0.03758524  0.57155104  0.07152123    -0.54900
O1359       O  0.03333094  0.58832586  0.14162323    -0.58200
In1360     In  0.93587648  0.90871036  0.05381868     1.36900
C1361       C  0.94967048  0.90646241  0.99318089     0.79500
O1362       O  0.90708000  0.89195071  0.05189342    -0.59000
O1363       O  0.91221645  0.94165861  0.04696914    -0.49900
C1364       C  0.93745602  0.85831426  0.09410032     0.72100
O1365       O  0.93556106  0.85542321  0.06333574    -0.44700
C1366       C  0.95687168  0.95295703  0.08175469     0.76900
O1367       O  0.95338243  0.88610040  0.01504530    -0.56600
O1368       O  0.94022603  0.95115788  0.08726106    -0.46700
O1369       O  0.93806844  0.92664361  0.00165541    -0.53000
C1370       C  0.90064485  0.91952510  0.04839390     0.87000
O1371       O  0.93884711  0.88680834  0.10402404    -0.54900
O1372       O  0.96282007  0.93144996  0.06306749    -0.58200
In1373     In  0.92935372  0.96179612  0.67026203     1.36900
C1374       C  0.94001657  0.96034418  0.73257565     0.79500
O1375       O  0.90546118  0.95078858  0.63804892    -0.59000
O1376       O  0.90188561  0.94925760  0.68990173    -0.49900
C1377       C  0.93671044  0.50681217  0.62414463     0.72100
O1378       O  0.93756715  0.50734775  0.65519942    -0.44700
C1379       C  0.95131077  0.91633950  0.64796519     0.76900
O1380       O  0.94619417  0.98016526  0.71192051    -0.56600
O1381       O  0.95691847  0.94084693  0.66274676    -0.46700
O1382       O  0.92762521  0.94249478  0.72184724    -0.53000
C1383       C  0.89490367  0.94565461  0.66181141     0.87000
O1384       O  0.93867470  0.99617153  0.63086316    -0.54900
O1385       O  0.93462357  0.91569986  0.64327765    -0.58200
In1386     In  0.99022105  0.94847222  0.85991264     1.36900
C1387       C  0.01180625  0.99712340  0.87563689     0.79500
O1388       O  0.96632700  0.96004829  0.89158429    -0.59000
O1389       O  0.98164245  0.91935287  0.90429763    -0.49900
C1390       C  0.97199700  0.96389095  0.80575306     0.72100
O1391       O  0.98594741  0.97866778  0.81468551    -0.44700
C1392       C  0.01045791  0.89748788  0.84688963     0.76900
O1393       O  0.99636221  0.99362385  0.88779541    -0.56600
O1394       O  0.01383785  0.91635318  0.87033107    -0.46700
O1395       O  0.01608879  0.97615556  0.85487481    -0.53000
C1396       C  0.96846679  0.93693472  0.91108165     0.87000
O1397       O  0.96735339  0.94115279  0.82444793    -0.54900
O1398       O  0.99646277  0.90412627  0.83085042    -0.58200
In1399     In  0.07172918  0.79406669  0.81643097     1.36900
C1400       C  0.04972199  0.83854534  0.84089639     0.79500
O1401       O  0.09325864  0.83248920  0.81664212    -0.59000
O1402       O  0.10137583  0.78426515  0.81135330    -0.49900
C1403       C  0.07120071  0.74077136  0.85360416     0.72100
O1404       O  0.06901848  0.76833438  0.86535382    -0.44700
C1405       C  0.05915730  0.78978757  0.75488507     0.76900
O1406       O  0.06535720  0.83428439  0.85195963    -0.56600
O1407       O  0.07416941  0.80228654  0.76163499    -0.46700
O1408       O  0.04523419  0.81942108  0.81839536    -0.53000
C1409       C  0.10610895  0.81325036  0.81358480     0.87000
O1410       O  0.07321717  0.74034303  0.82282360    -0.54900
O1411       O  0.05103719  0.77789119  0.77932284    -0.58200
In1412     In  0.06442321  0.84696080  0.43400745     1.36900
C1413       C  0.04037212  0.80682711  0.40780546     0.79500
O1414       O  0.08831215  0.83368703  0.40291210    -0.59000
O1415       O  0.09166038  0.83477402  0.45464897    -0.49900
C1416       C  0.06483058  0.90447262  0.40577359     0.72100
O1417       O  0.05836383  0.87987361  0.39206255    -0.44700
C1418       C  0.05159438  0.84605910  0.49515483     0.76900
O1419       O  0.03719326  0.83608900  0.41223943    -0.56600
O1420       O  0.05830401  0.82191850  0.48147146    -0.46700
O1421       O  0.05598744  0.79834784  0.41582261    -0.53000
C1422       C  0.09871180  0.82968713  0.42696965     0.87000
O1423       O  0.07099232  0.89980053  0.43432904    -0.54900
O1424       O  0.05199286  0.87123637  0.47799150    -0.58200
In1425     In  0.00943690  0.80646978  0.62659082     1.36900
C1426       C  0.99097601  0.85935113  0.63977756     0.79500
O1427       O  0.98613602  0.79111183  0.59579618    -0.59000
O1428       O  0.99820143  0.75588774  0.62623302    -0.49900
C1429       C  0.03091676  0.81368297  0.57459569     0.72100
O1430       O  0.02850769  0.78712447  0.58870067    -0.44700
C1431       C  0.02539947  0.79172702  0.68362837     0.76900
O1432       O  0.98394411  0.83409564  0.62875336    -0.56600
O1433       O  0.00865508  0.78989497  0.67948508    -0.46700
O1434       O  0.00765020  0.85761970  0.64485636    -0.53000
C1435       C  0.98595674  0.76260511  0.60586453     0.87000
O1436       O  0.02282346  0.83674484  0.58767672    -0.54900
O1437       O  0.03403009  0.80065497  0.65848688    -0.58200
In1438     In  0.93662702  0.72491627  0.17349627     1.36900
C1439       C  0.94883022  0.72588574  0.23483932     0.79500
O1440       O  0.90857605  0.73908842  0.18702076    -0.59000
O1441       O  0.91283181  0.69138960  0.17089140    -0.49900
C1442       C  0.93553186  0.77367253  0.13112064     0.72100
O1443       O  0.93788784  0.77741389  0.16164207    -0.44700
C1444       C  0.96215065  0.68718939  0.14941701     0.76900
O1445       O  0.95135245  0.74879277  0.21506050    -0.56600
O1446       O  0.94564118  0.68047347  0.14681751    -0.46700
O1447       O  0.93920353  0.70337633  0.22383198    -0.53000
C1448       C  0.90175302  0.71215124  0.18046760     0.87000
O1449       O  0.93368960  0.74492394  0.12221578    -0.54900
O1450       O  0.96546974  0.71359193  0.16306415    -0.58200
In1451     In  0.93530250  0.64725738  0.55896602     1.36900
C1452       C  0.95054594  0.64902735  0.49960180     0.79500
O1453       O  0.90829021  0.63998501  0.53480559    -0.59000
O1454       O  0.91021905  0.67394540  0.57330980    -0.49900
C1455       C  0.93439828  0.59435347  0.59569632     0.72100
O1456       O  0.93523382  0.59368221  0.56466702    -0.44700
C1457       C  0.95902181  0.68646422  0.58729663     0.76900
O1458       O  0.95208435  0.62550459  0.51883901    -0.56600
O1459       O  0.94394031  0.69578010  0.57701576    -0.46700
O1460       O  0.94090557  0.67132621  0.51041054    -0.53000
C1461       C  0.90040543  0.66072076  0.55188699     0.87000
O1462       O  0.93338029  0.62203508  0.60784850    -0.54900
O1463       O  0.96172459  0.65691523  0.58414579    -0.58200
In1464     In  0.99095858  0.68660600  0.36543041     1.36900
C1465       C  0.01354819  0.64348544  0.34154138     0.79500
O1466       O  0.96889387  0.66919896  0.33188503    -0.59000
O1467       O  0.97944668  0.71598877  0.32442847    -0.49900
C1468       C  0.96981676  0.67936935  0.41788725     0.72100
O1469       O  0.97916466  0.65693024  0.40650111    -0.44700
C1470       C  0.01480091  0.72959230  0.38702468     0.76900
O1471       O  0.00337683  0.63757830  0.36567529    -0.56600
O1472       O  0.00226873  0.73683217  0.36757025    -0.46700
O1473       O  0.01165621  0.67086266  0.32896996    -0.53000
C1474       C  0.96854409  0.69464034  0.31515118     0.87000
O1475       O  0.97093939  0.70522759  0.40199735    -0.54900
O1476       O  0.01492396  0.70066000  0.39578788    -0.58200
In1477     In  0.81193632  0.90028828  0.67129426     1.36900
C1478       C  0.79269564  0.90207587  0.72663217     0.79500
O1479       O  0.83836651  0.89847304  0.69811825    -0.59000
O1480       O  0.83770544  0.92229556  0.65202006    -0.49900
C1481       C  0.81287521  0.84242295  0.64349638     0.72100
O1482       O  0.81082284  0.84645391  0.67402530    -0.44700
C1483       C  0.79249638  0.94526633  0.64194194     0.76900
O1484       O  0.78807772  0.88534607  0.70219403    -0.56600
O1485       O  0.80349058  0.95123829  0.66468342    -0.46700
O1486       O  0.80746567  0.91664535  0.72323174    -0.53000
C1487       C  0.84691518  0.91426486  0.67671654     0.87000
O1488       O  0.81456255  0.86799434  0.62711961    -0.54900
O1489       O  0.79209284  0.91646191  0.63285977    -0.58200
In1490     In  0.81914251  0.96861921  0.04245480     1.36900
C1491       C  0.80391110  0.97046751  0.98303279     0.79500
O1492       O  0.84744604  0.98446735  0.03057768    -0.59000
O1493       O  0.84349253  0.93882041  0.05260416    -0.49900
C1494       C  0.82045052  0.52498467  0.09479392     0.72100
O1495       O  0.82102152  0.52712016  0.06381354    -0.44700
C1496       C  0.80017007  0.91936960  0.06592230     0.76900
O1497       O  0.79585007  0.97926862  0.00868514    -0.56600
O1498       O  0.81364469  0.91607210  0.04754870    -0.46700
O1499       O  0.82006910  0.96306879  0.98742077    -0.53000
C1500       C  0.85449896  0.95912509  0.04127303     0.87000
O1501       O  0.82019006  0.99125098  0.09230904    -0.54900
O1502       O  0.79665549  0.94798325  0.07335435    -0.58200
In1503     In  0.75214246  0.93991987  0.86088138     1.36900
C1504       C  0.72922528  0.98388283  0.83918145     0.79500
O1505       O  0.77457141  0.95555982  0.82710511    -0.59000
O1506       O  0.76090236  0.91219348  0.81627440    -0.49900
C1507       C  0.76833680  0.95764408  0.91648443     0.72100
O1508       O  0.75149820  0.95689742  0.91344952    -0.44700
C1509       C  0.73692370  0.88496306  0.87906969     0.76900
O1510       O  0.72909333  0.95538813  0.82925989    -0.56600
O1511       O  0.75372228  0.88830259  0.87712765    -0.46700
O1512       O  0.74119090  0.99017554  0.86015835    -0.53000
C1513       C  0.77305868  0.93179584  0.80822018     0.87000
O1514       O  0.77687152  0.94918811  0.89115442    -0.54900
O1515       O  0.72811289  0.90988837  0.87274846    -0.58200
In1516     In  0.68718021  0.84680209  0.31048129     1.36900
C1517       C  0.70822657  0.80271519  0.33740257     0.79500
O1518       O  0.66206891  0.82546947  0.33388720    -0.59000
O1519       O  0.66067643  0.84123493  0.28438865    -0.49900
C1520       C  0.68667285  0.90638531  0.33403435     0.72100
O1521       O  0.68386418  0.88207505  0.35179296    -0.44700
C1522       C  0.70596183  0.84698697  0.25504588     0.76900
O1523       O  0.70694945  0.83055412  0.34901961    -0.56600
O1524       O  0.68939733  0.84021299  0.25583985    -0.46700
O1525       O  0.69762105  0.79670973  0.31400473    -0.53000
C1526       C  0.65255642  0.82866059  0.30839476     0.87000
O1527       O  0.68935500  0.90031388  0.30412869    -0.54900
O1528       O  0.71263894  0.85518666  0.28229133    -0.58200
In1529     In  0.68229919  0.77455913  0.92514345     1.36900
C1530       C  0.70076168  0.82220808  0.89710192     0.79500
O1531       O  0.65555426  0.77728243  0.89949440    -0.59000
O1532       O  0.65639427  0.78795462  0.95042486    -0.49900
C1533       C  0.68508675  0.71678290  0.89779971     0.72100
O1534       O  0.68885906  0.74227238  0.88236917    -0.44700
C1535       C  0.69719561  0.77587012  0.98472955     0.76900
O1536       O  0.70833872  0.79779882  0.90871646    -0.56600
O1537       O  0.68714984  0.79783435  0.97421904    -0.46700
O1538       O  0.68391934  0.82120917  0.89797581    -0.53000
C1539       C  0.64707291  0.78635116  0.92455049     0.87000
O1540       O  0.67985478  0.72092975  0.92701023    -0.54900
O1541       O  0.69894266  0.75255058  0.96540470    -0.58200
In1542     In  0.74110409  0.81673989  0.11453396     1.36900
C1543       C  0.76279274  0.86671262  0.10240196     0.79500
O1544       O  0.76567940  0.78575748  0.10959278    -0.59000
O1545       O  0.74501543  0.77007237  0.14168723    -0.49900
C1546       C  0.72137113  0.82831468  0.16747625     0.72100
O1547       O  0.73831509  0.83041389  0.16775314    -0.44700
C1548       C  0.71983604  0.80880266  0.06213347     0.76900
O1549       O  0.74977899  0.86818712  0.12209226    -0.56600
O1550       O  0.72789344  0.78586743  0.07568568    -0.46700
O1551       O  0.76476506  0.83973131  0.08910270    -0.53000
C1552       C  0.76025743  0.76469671  0.12958423     0.87000
O1553       O  0.71464002  0.82016917  0.14026140    -0.54900
O1554       O  0.72273665  0.83560153  0.07518161    -0.58200
In1555     In  0.82025483  0.66160446  0.16800559     1.36900
C1556       C  0.80664018  0.65790906  0.22840963     0.79500
O1557       O  0.84856789  0.64427256  0.17529959    -0.59000
O1558       O  0.84431211  0.69431812  0.17386949    -0.49900
C1559       C  0.81902980  0.61112902  0.12781216     0.72100
O1560       O  0.81752661  0.60868916  0.15864830    -0.44700
C1561       C  0.79903867  0.70573751  0.14076074     0.76900
O1562       O  0.80331009  0.63742468  0.20649477    -0.56600
O1563       O  0.81560325  0.70414044  0.13469066    -0.46700
O1564       O  0.81756100  0.67962250  0.21991080    -0.53000
C1565       C  0.85545138  0.67185099  0.17627114     0.87000
O1566       O  0.82078663  0.63947564  0.11742333    -0.54900
O1567       O  0.79319643  0.68394600  0.15949181    -0.58200
In1568     In  0.81911165  0.71491329  0.55545994     1.36900
C1569       C  0.80648819  0.71743896  0.49395711     0.79500
O1570       O  0.84618972  0.71823807  0.57976475    -0.59000
O1571       O  0.84420712  0.68991349  0.53685083    -0.49900
C1572       C  0.81802378  0.77301221  0.58227973     0.72100
O1573       O  0.82449370  0.76795237  0.55404071    -0.44700
C1574       C  0.79745445  0.67154903  0.58443301     0.76900
O1575       O  0.80510565  0.74032186  0.51388718    -0.56600
O1576       O  0.81422949  0.67164918  0.58803166    -0.46700
O1577       O  0.81514100  0.69381187  0.50484196    -0.53000
C1578       C  0.85407376  0.70022287  0.55979924     0.87000
O1579       O  0.81188758  0.74835396  0.59666404    -0.54900
O1580       O  0.79163788  0.69463782  0.56768263    -0.58200
In1581     In  0.76358406  0.68745770  0.36067411     1.36900
C1582       C  0.73998612  0.73118020  0.34126447     0.79500
O1583       O  0.78435483  0.70890425  0.32671154    -0.59000
O1584       O  0.77690027  0.66020940  0.31999261    -0.49900
C1585       C  0.78545856  0.69091300  0.41244758     0.72100
O1586       O  0.77739863  0.71499246  0.40108365    -0.44700
C1587       C  0.73982934  0.64311131  0.37964256     0.76900
O1588       O  0.74944852  0.73456322  0.36679830    -0.56600
O1589       O  0.75046936  0.63877521  0.35591260    -0.46700
O1590       O  0.74305701  0.70608045  0.32513066    -0.53000
C1591       C  0.78628570  0.68362658  0.31024497     0.87000
O1592       O  0.78272839  0.66535565  0.39677890    -0.54900
O1593       O  0.74151110  0.66980779  0.39369832    -0.58200
In1594     In  0.69186962  0.58872163  0.81019383     1.36900
C1595       C  0.71533852  0.54782229  0.83596870     0.79500
O1596       O  0.67008854  0.55916538  0.83452577    -0.59000
O1597       O  0.66274431  0.58867420  0.79437927    -0.49900
C1598       C  0.69022926  0.64725654  0.83665100     0.72100
O1599       O  0.69103349  0.62207190  0.85378755    -0.44700
C1600       C  0.70718117  0.58864807  0.75060663     0.76900
O1601       O  0.71339700  0.57573080  0.84716430    -0.56600
O1602       O  0.71362172  0.60383180  0.77473571    -0.46700
O1603       O  0.70475672  0.54060739  0.81290837    -0.53000
C1604       C  0.65770062  0.56886007  0.81602526     0.87000
O1605       O  0.69042958  0.64255577  0.80600456    -0.54900
O1606       O  0.69241049  0.57472702  0.75645658    -0.58200
In1607     In  0.68631605  0.52510129  0.40956431     1.36900
C1608       C  0.71054342  0.56750022  0.38742844     0.79500
O1609       O  0.66441699  0.55356797  0.38446908    -0.59000
O1610       O  0.65747196  0.52642488  0.42666765    -0.49900
C1611       C  0.68329256  0.97844855  0.39171824     0.72100
O1612       O  0.69010426  0.00204006  0.37656777    -0.44700
C1613       C  0.70106511  0.52104645  0.46947298     0.76900
O1614       O  0.70939383  0.53940506  0.37633566    -0.56600
O1615       O  0.68754200  0.53812560  0.46344477    -0.46700
O1616       O  0.69902258  0.57409591  0.40902936    -0.53000
C1617       C  0.65227818  0.54528306  0.40438738     0.87000
O1618       O  0.67714990  0.98481305  0.41984540    -0.54900
O1619       O  0.70639600  0.50468948  0.44536794    -0.58200
In1620     In  0.73996089  0.55786515  0.60655884     1.36900
C1621       C  0.75831583  0.61216822  0.59502359     0.79500
O1622       O  0.76615228  0.53533598  0.59286465    -0.59000
O1623       O  0.74946427  0.50987098  0.62628883    -0.49900
C1624       C  0.72157460  0.56390480  0.66323021     0.72100
O1625       O  0.73546403  0.58004964  0.65668929    -0.44700
C1626       C  0.71866811  0.54739530  0.55422669     0.76900
O1627       O  0.74353722  0.60578545  0.58129678    -0.56600
O1628       O  0.71593148  0.56929347  0.57486598    -0.46700
O1629       O  0.76344159  0.59128041  0.61533407    -0.53000
C1630       C  0.76425438  0.51114052  0.61107460     0.87000
O1631       O  0.71715271  0.54440257  0.64102370    -0.54900
O1632       O  0.73220469  0.53043940  0.56044616    -0.58200
C1633       C  0.71064401  0.52126302  0.50141103    -0.14500
C1634       C  0.70716935  0.54313753  0.52479488    -0.29700
H1635       H  0.72181303  0.50493135  0.50453701     0.14500
H1636       H  0.69622898  0.55989443  0.52130115     0.15100
C1637       C  0.71128982  0.56719329  0.69424117    -0.14500
C1638       C  0.71665042  0.58684737  0.71862390    -0.29700
H1639       H  0.69928344  0.55255717  0.69735125     0.14500
H1640       H  0.72885938  0.60097861  0.71570879     0.15100
C1641       C  0.72629208  0.61939341  0.39042688    -0.14500
C1642       C  0.72434985  0.59058620  0.37613387    -0.29700
H1643       H  0.71760307  0.62600124  0.41076850     0.14500
H1644       H  0.73315523  0.58365771  0.35608788     0.15100
C1645       C  0.78587435  0.64553286  0.59743360    -0.14500
C1646       C  0.76889928  0.64122133  0.58685843    -0.29700
H1647       H  0.79195886  0.62789637  0.61360444     0.14500
H1648       H  0.76307323  0.65821995  0.56967131     0.15100
C1649       C  0.79786504  0.71810203  0.46127364    -0.14500
C1650       C  0.79666273  0.69184345  0.44235855    -0.29700
H1651       H  0.79110142  0.73995046  0.45386392     0.14500
H1652       H  0.80301019  0.66974218  0.45020810     0.15100
C1653       C  0.79806062  0.68220257  0.28116643    -0.14500
C1654       C  0.79764191  0.65705642  0.26064333    -0.29700
H1655       H  0.80607466  0.70326733  0.27508842     0.14500
H1656       H  0.78911367  0.63649686  0.26618228     0.15100
C1657       C  0.78769634  0.73180845  0.12792459    -0.14500
C1658       C  0.77087017  0.73635300  0.13888502    -0.29700
H1659       H  0.79372305  0.74884524  0.11084452     0.14500
H1660       H  0.76500124  0.71967743  0.15652167     0.15100
C1661       C  0.68664158  0.68446606  0.88336257    -0.14500
C1662       C  0.68910144  0.67972184  0.85095054    -0.29700
H1663       H  0.68528249  0.66401630  0.89981381     0.14500
H1664       H  0.68987328  0.70012391  0.83432439     0.15100
C1665       C  0.70684056  0.77765322  0.01635580    -0.14500
C1666       C  0.70815249  0.80524005  0.03310727    -0.29700
H1667       H  0.71418453  0.75670257  0.02457079     0.14500
H1668       H  0.70127655  0.82644318  0.02420994     0.15100
C1669       C  0.68253098  0.94579051  0.37818700    -0.14500
C1670       C  0.68710845  0.93931056  0.34697359    -0.29700
H1671       H  0.67791973  0.92662266  0.39432795     0.14500
H1672       H  0.69130358  0.95853355  0.33052922     0.15100
C1673       C  0.72170706  0.77970595  0.34915849    -0.14500
C1674       C  0.72613417  0.75410435  0.33098002    -0.29700
H1675       H  0.72878396  0.78481036  0.37196711     0.14500
H1676       H  0.71928907  0.74958255  0.30779690     0.15100
C1677       C  0.71702068  0.84436930  0.22516266    -0.14500
C1678       C  0.71008956  0.83423327  0.19653404    -0.29700
H1679       H  0.73131877  0.84938025  0.22720078     0.14500
H1680       H  0.69577856  0.82935479  0.19448509     0.15100
C1681       C  0.72922777  0.52568449  0.84807704    -0.14500
C1682       C  0.71643226  0.00756461  0.82658512    -0.29700
H1683       H  0.73640309  0.53151109  0.87059976     0.14500
H1684       H  0.72670824  0.49462439  0.80752840     0.15100
C1685       C  0.72823659  0.85438636  0.88800302    -0.14500
C1686       C  0.71041472  0.85061483  0.88488316    -0.29700
H1687       H  0.73644866  0.83511850  0.89767485     0.14500
H1688       H  0.70236228  0.86999953  0.87497394     0.15100
C1689       C  0.81895557  0.55294616  0.11685937    -0.14500
C1690       C  0.81914840  0.58323531  0.10547986    -0.29700
H1691       H  0.81828465  0.54846524  0.14319943     0.14500
H1692       H  0.82010629  0.58775013  0.07918325     0.15100
C1693       C  0.78926381  0.89164497  0.07654774    -0.14500
C1694       C  0.77445987  0.89455624  0.09512485    -0.29700
H1695       H  0.79317138  0.86819671  0.06758910     0.14500
H1696       H  0.77057458  0.91786348  0.10448863     0.15100
C1697       C  0.77717094  0.96695388  0.94755294    -0.14500
C1698       C  0.79512132  0.96697917  0.95074157    -0.29700
H1699       H  0.76872204  0.97207758  0.96868618     0.14500
H1700       H  0.80351987  0.96110943  0.92975712     0.15100
C1701       C  0.81309785  0.81020183  0.62854368    -0.14500
C1702       C  0.81780483  0.80534325  0.59700592    -0.29700
H1703       H  0.80952009  0.78991151  0.64408424     0.14500
H1704       H  0.82193898  0.82549348  0.58172256     0.15100
C1705       C  0.78061734  0.96968247  0.62780652    -0.14500
C1706       C  0.77842546  0.99807116  0.64263999    -0.29700
H1707       H  0.77295070  0.96370376  0.60587380     0.14500
H1708       H  0.79216237  0.49472134  0.60698687     0.15100
C1709       C  0.78147417  0.90485049  0.75642845    -0.14500
C1710       C  0.78465576  0.92758285  0.77914909    -0.29700
H1711       H  0.76993827  0.88894013  0.75895598     0.14500
H1712       H  0.79579459  0.94425131  0.77588906     0.15100
C1713       C  0.88130222  0.66886157  0.54665961    -0.14500
C1714       C  0.87322250  0.69207778  0.56391089    -0.29700
H1715       H  0.87377588  0.65555194  0.52821997     0.14500
H1716       H  0.88075877  0.70505852  0.58258649     0.15100
C1717       C  0.95973969  0.65040444  0.46750157    -0.14500
C1718       C  0.95886433  0.67633446  0.44794629    -0.29700
H1719       H  0.96812593  0.63030841  0.46061518     0.14500
H1720       H  0.95073396  0.69667007  0.45512621     0.15100
C1721       C  0.88224526  0.70624312  0.18273207    -0.14500
C1722       C  0.87502419  0.67697996  0.17864026    -0.29700
H1723       H  0.87358239  0.72672493  0.18663752     0.14500
H1724       H  0.88368563  0.65635393  0.17563333     0.05500
C1725       C  0.95683174  0.69839243  0.28624680    -0.14500
C1726       C  0.95749160  0.72481945  0.26735652    -0.29700
H1727       H  0.94854681  0.67806534  0.27898295     0.14500
H1728       H  0.96598040  0.74495746  0.27439368     0.15100
C1729       C  0.97213567  0.73981064  0.59456697    -0.14500
C1730       C  0.97269841  0.70834249  0.60100766    -0.29700
H1731       H  0.96133204  0.74930478  0.57950622     0.14500
H1732       H  0.98388770  0.69833135  0.61466819     0.15100
C1733       C  0.02675654  0.78438279  0.39479867    -0.14500
C1734       C  0.02846776  0.75260087  0.39862905    -0.29700
H1735       H  0.01478241  0.79413608  0.38336645     0.14500
H1736       H  0.04004476  0.74308247  0.41156900     0.15100
C1737       C  0.04323651  0.84467384  0.52797802    -0.14500
C1738       C  0.04176109  0.81685985  0.54449440    -0.29700
H1739       H  0.03715653  0.86628963  0.53764573     0.14500
H1740       H  0.04768995  0.79523082  0.53453961     0.15100
C1741       C  0.03392376  0.78493320  0.71574439    -0.14500
C1742       C  0.05143331  0.79089704  0.72138364    -0.29700
H1743       H  0.02530261  0.77709406  0.73584627     0.14500
H1744       H  0.05991543  0.79978463  0.70154617     0.15100
C1745       C  0.02195411  0.87014721  0.83803396    -0.14500
C1746       C  0.03784257  0.86437187  0.85264522    -0.29700
H1747       H  0.01750768  0.85511014  0.81776496     0.14500
H1748       H  0.04256066  0.87969075  0.87247858     0.15100
C1749       C  0.93600223  0.53587701  0.60349255    -0.14500
C1750       C  0.93491671  0.56534499  0.61648157    -0.29700
H1751       H  0.93613929  0.53286068  0.57692354     0.14500
H1752       H  0.93462119  0.56836337  0.64304132     0.15100
C1753       C  0.87592196  0.93625835  0.65681978    -0.14500
C1754       C  0.86601935  0.92309800  0.68107487    -0.29700
H1755       H  0.87011778  0.93955164  0.63250818     0.14500
H1756       H  0.87209938  0.91856059  0.70494874     0.15100
C1757       C  0.96296983  0.88976954  0.63803733    -0.14500
C1758       C  0.98040927  0.88831939  0.64649752    -0.29700
H1759       H  0.95669610  0.86987133  0.62509495     0.14500
H1760       H  0.98681649  0.90812210  0.65936189     0.15100
C1761       C  0.94738439  0.95666504  0.76597172    -0.14500
C1762       C  0.96243257  0.97207276  0.77520669    -0.29700
H1763       H  0.94131644  0.93878928  0.78206722     0.14500
H1764       H  0.96855782  0.98979812  0.75900365     0.15100
C1765       C  0.93787550  0.83097474  0.11716419    -0.14500
C1766       C  0.93504232  0.80059797  0.10750439    -0.29700
H1767       H  0.94040662  0.83613882  0.14296941     0.14500
H1768       H  0.93241374  0.79531756  0.08176025     0.15100
C1769       C  0.88112084  0.92499432  0.04696456    -0.14500
C1770       C  0.87407472  0.95392217  0.04077609    -0.29700
H1771       H  0.87229654  0.90461005  0.05154887     0.14500
H1772       H  0.88281547  0.97418098  0.03520971     0.15100
C1773       C  0.95908500  0.90763509  0.96121023    -0.14500
C1774       C  0.95678204  0.93203625  0.94002255    -0.29700
H1775       H  0.96922121  0.88966339  0.95634953     0.14500
H1776       H  0.94674270  0.95014526  0.94506228     0.15100
C1777       C  0.97327857  0.63690776  0.12556353    -0.14500
C1778       C  0.97666048  0.66580755  0.13857520    -0.29700
H1779       H  0.95949320  0.62921773  0.12140852     0.14500
H1780       H  0.99044658  0.67350026  0.14274287     0.15100
C1781       C  0.96824885  0.97889631  0.09516406    -0.14500
C1782       C  0.98535366  0.98303432  0.08532246    -0.29700
H1783       H  0.96208642  0.99615187  0.11157483     0.14500
H1784       H  0.99133958  0.96618570  0.06825544     0.15100
C1785       C  0.06136929  0.93919465  0.35744219    -0.14500
C1786       C  0.06532440  0.93612746  0.38955812    -0.29700
H1787       H  0.05775919  0.91812635  0.34315415     0.14500
H1788       H  0.06942558  0.95689688  0.40386278     0.15100
C1789       C  0.02708286  0.62100091  0.32928030    -0.14500
C1790       C  0.02859070  0.59099271  0.34080023    -0.29700
H1791       H  0.03615377  0.62952196  0.31014330     0.14500
H1792       H  0.01904916  0.58162580  0.35869396     0.15100
C1793       C  0.04322268  0.55965935  0.18922130    -0.14500
C1794       C  0.04186623  0.53369543  0.20871906    -0.29700
H1795       H  0.05171064  0.57969923  0.19654255     0.14500
H1796       H  0.03325492  0.51372374  0.20169039     0.15100
C1797       C  0.07493177  0.68258843  0.86180652    -0.14500
C1798       C  0.07156441  0.71166490  0.87445273    -0.29700
H1799       H  0.07728414  0.68009337  0.83553654     0.14500
H1800       H  0.06922750  0.71428486  0.90070857     0.15100
C1801       C  0.04207086  0.53379984  0.87281129    -0.14500
C1802       C  0.02388047  0.02326333  0.88584572    -0.29700
H1803       H  0.04696659  0.51947621  0.85243571     0.14500
H1804       H  0.02127786  0.54125724  0.90711721     0.15100
C1805       C  0.03984849  0.59894988  0.01926051    -0.14500
C1806       C  0.05636020  0.58863626  0.01160674    -0.29700
H1807       H  0.03242789  0.61349689  0.00177616     0.14500
H1808       H  0.06362110  0.57342420  0.02871077     0.15100
C1809       C  0.62089320  0.54815344  0.42352333    -0.14500
C1810       C  0.63364660  0.55724416  0.40194310    -0.29700
H1811       H  0.62416980  0.53112143  0.44284917     0.14500
H1812       H  0.63050994  0.57439758  0.38265306     0.15100
C1813       C  0.54806358  0.58451565  0.52047078    -0.14500
C1814       C  0.53067417  0.57722617  0.52554520    -0.29700
H1815       H  0.55731962  0.58545614  0.54112851     0.14500
H1816       H  0.52145924  0.57640593  0.50480201     0.15100
C1817       C  0.63891493  0.55768878  0.81976998    -0.14500
C1818       C  0.62621229  0.56461983  0.79743803    -0.29700
H1819       H  0.63557459  0.54289521  0.84098131     0.14500
H1820       H  0.62972533  0.57865384  0.77577189     0.15100
C1821       C  0.55024655  0.52785034  0.71093862    -0.14500
C1822       C  0.53272548  0.53367697  0.70643537    -0.29700
H1823       H  0.55907276  0.52505873  0.68985397     0.14500
H1824       H  0.52399475  0.53643347  0.72767468     0.15100
C1825       C  0.52091552  0.02120966  0.39713555    -0.14500
C1826       C  0.53198244  0.52222606  0.38696179    -0.29700
H1827       H  0.51332935  0.04209424  0.40461719     0.14500
H1828       H  0.52373333  0.52929857  0.36615187     0.15100
C1829       C  0.46715750  0.97691976  0.61016747    -0.14500
C1830       C  0.48511286  0.97690287  0.60679819    -0.29700
H1831       H  0.46044358  0.99727092  0.62119405     0.14500
H1832       H  0.49171284  0.95660209  0.59542924     0.15100
C1833       C  0.45431157  0.90803381  0.47396608    -0.14500
C1834       C  0.47192180  0.91150785  0.46760921    -0.29700
H1835       H  0.44452074  0.91090838  0.45435861     0.14500
H1836       H  0.48158242  0.90901120  0.48750096     0.15100
C1837       C  0.45847096  0.94292702  0.29727805    -0.14500
C1838       C  0.45497523  0.97077919  0.28184427    -0.29700
H1839       H  0.45339095  0.92056555  0.28710909     0.14500
H1840       H  0.46039481  0.99305565  0.29160034     0.15100
C1841       C  0.54268778  0.60675370  0.84234603    -0.14500
C1842       C  0.52581799  0.60196240  0.85315378    -0.29700
H1843       H  0.54807000  0.63096606  0.84045188     0.14500
H1844       H  0.52044438  0.57776049  0.85519229     0.15100
C1845       C  0.43064650  0.55865878  0.14364710    -0.14500
C1846       C  0.43000514  0.56375242  0.11100190    -0.29700
H1847       H  0.43161614  0.57879057  0.16049176     0.14500
H1848       H  0.42850488  0.54371726  0.09416441     0.15100
C1849       C  0.45988997  0.64994907  0.98195044    -0.14500
C1850       C  0.45801823  0.67260041  0.95867100    -0.29700
H1851       H  0.46997177  0.63147044  0.97905940     0.14500
H1852       H  0.44822011  0.69152254  0.96176094     0.15100
C1853       C  0.43983861  0.79313579  0.61971754    -0.14500
C1854       C  0.44079483  0.82333225  0.63094514    -0.29700
H1855       H  0.43881810  0.78875814  0.59342311     0.14500
H1856       H  0.44185121  0.82766435  0.65725015     0.15100
C1857       C  0.48507361  0.63732110  0.64093943    -0.14500
C1858       C  0.46743334  0.64162178  0.63629142    -0.29700
H1859       H  0.49302966  0.65517845  0.65392877     0.14500
H1860       H  0.45955438  0.62369625  0.62323014     0.15100
C1861       C  0.46475757  0.71297361  0.77223241    -0.14500
C1862       C  0.46205283  0.68902824  0.79389289    -0.29700
H1863       H  0.47515126  0.73083331  0.77679696     0.14500
H1864       H  0.45193786  0.67078957  0.78883512     0.15100
C1865       C  0.47095010  0.71850423  0.11174660    -0.14500
C1866       C  0.47161417  0.74898511  0.10138821    -0.29700
H1867       H  0.48087908  0.70959619  0.12904256     0.14500
H1868       H  0.46202286  0.75746740  0.08323186     0.15100
C1869       C  0.47105908  0.91152092  0.15406501    -0.14500
C1870       C  0.47099062  0.88086037  0.16401006    -0.29700
H1871       H  0.48208344  0.92095527  0.13934473     0.14500
H1872       H  0.46017927  0.87192648  0.17958164     0.15100
C1873       C  0.57089653  0.67835823  0.39023094    -0.14500
C1874       C  0.57348779  0.68547185  0.35824038    -0.29700
H1875       H  0.56875183  0.69751174  0.40783814     0.14500
H1876       H  0.57608352  0.66644921  0.34069273     0.15100
C1877       C  0.62380609  0.80871855  0.33210480    -0.14500
C1878       C  0.63357177  0.81820753  0.30593794    -0.29700
H1879       H  0.62963678  0.80951120  0.35661211     0.14500
H1880       H  0.62739112  0.81866725  0.28170509     0.15100
C1881       C  0.53356248  0.84180536  0.36153375    -0.14500
C1882       C  0.53082664  0.87006430  0.34644535    -0.29700
H1883       H  0.52517056  0.83447623  0.38213965     0.14500
H1884       H  0.53901290  0.87679296  0.32534431     0.15100
C1885       C  0.54233945  0.80590163  0.21593561    -0.14500
C1886       C  0.54291162  0.77924271  0.23453380    -0.29700
H1887       H  0.55052904  0.82659031  0.22246252     0.14500
H1888       H  0.53440919  0.75881015  0.22852708     0.15100
C1889       C  0.56834340  0.92830426  0.89819395    -0.14500
C1890       C  0.57374048  0.93336514  0.86707748    -0.29700
H1891       H  0.56366633  0.94824837  0.91297380     0.14500
H1892       H  0.57881604  0.91364604  0.85243665     0.15100
C1893       C  0.62005068  0.81268350  0.94646768    -0.14500
C1894       C  0.62789778  0.79491505  0.92305219    -0.29700
H1895       H  0.62784218  0.82089644  0.96747861     0.14500
H1896       H  0.62031669  0.78779993  0.90137775     0.15100
C1897       C  0.53086611  0.77353222  0.90088616    -0.14500
C1898       C  0.52868689  0.74416403  0.91391478    -0.29700
H1899       H  0.52262190  0.78113799  0.88026841     0.14500
H1900       H  0.53688375  0.73679631  0.93469752     0.15100
C1901       C  0.53997700  0.84284845  0.03117690    -0.14500
C1902       C  0.54195282  0.82003773  0.05419410    -0.29700
H1903       H  0.52987995  0.86126785  0.03425876     0.14500
H1904       H  0.55144720  0.80074703  0.05040252     0.15100
C1905       C  0.12864301  0.57108765  0.32599855    -0.14500
C1906       C  0.11905042  0.56503924  0.29868257    -0.29700
H1907       H  0.12303506  0.56564227  0.35008492     0.14500
H1908       H  0.12507197  0.56889163  0.27460902     0.15100
C1909       C  0.20703941  0.60405785  0.23008899    -0.14500
C1910       C  0.20397618  0.58138735  0.20727706    -0.29700
H1911       H  0.21809708  0.62090966  0.22687542     0.14500
H1912       H  0.19330398  0.56384664  0.21095317     0.15100
C1913       C  0.13085699  0.57873074  0.92689620    -0.14500
C1914       C  0.13673901  0.54841674  0.92880875    -0.29700
H1915       H  0.14035728  0.59860012  0.92777601     0.14500
H1916       H  0.12710181  0.52874010  0.92909908     0.15100
C1917       C  0.20835435  0.55549917  0.04368768    -0.14500
C1918       C  0.20994074  0.52900000  0.02519873    -0.29700
H1919       H  0.20044246  0.57550319  0.03479615     0.14500
H1920       H  0.21839915  0.50951177  0.03360483     0.15100
C1921       C  0.21580738  0.01014916  0.32972191    -0.14500
C1922       C  0.21747854  0.53848706  0.35918858    -0.29700
H1923       H  0.20831572  0.00326176  0.30786146     0.14500
H1924       H  0.22751047  0.54695718  0.37660141     0.15100
C1925       C  0.37530883  0.94747353  0.55298807    -0.14500
C1926       C  0.38221122  0.92207244  0.56869040    -0.29700
H1927       H  0.38409840  0.96422159  0.54012844     0.14500
H1928       H  0.37332415  0.90447389  0.58004553     0.15100
C1929       C  0.29800330  0.94884414  0.45874340    -0.14500
C1930       C  0.28540046  0.96846064  0.44678393    -0.29700
H1931       H  0.30085675  0.92639008  0.44638150     0.14500
H1932       H  0.28273114  0.99105418  0.45902022     0.15100
C1933       C  0.36787745  0.93739351  0.19643885    -0.14500
C1934       C  0.37918523  0.94546805  0.17203346    -0.29700
H1935       H  0.37273154  0.93629521  0.22164722     0.14500
H1936       H  0.37462956  0.94465880  0.14662821     0.15100
C1937       C  0.27423503  0.97100274  0.14726481    -0.14500
C1938       C  0.27725822  0.00064309  0.13571492    -0.29700
H1939       H  0.26054070  0.96239401  0.15053629     0.14500
H1940       H  0.29094116  0.00875006  0.13120954     0.15100
C1941       C  0.28737057  0.93906266  0.28749798    -0.14500
C1942       C  0.28951036  0.91169436  0.27068474    -0.29700
H1943       H  0.29386283  0.96098562  0.27900910     0.14500
H1944       H  0.28292072  0.88979246  0.27894078     0.15100
C1945       C  0.28587232  0.86913390  0.58797468    -0.14500
C1946       C  0.28346699  0.90083839  0.59073834    -0.29700
H1947       H  0.29797824  0.86015003  0.57636072     0.14500
H1948       H  0.27117940  0.91014161  0.60136091     0.15100
C1949       C  0.18000080  0.69729355  0.39587271    -0.14500
C1950       C  0.17800052  0.69302029  0.36326707    -0.29700
H1951       H  0.18184640  0.67669228  0.41190372     0.14500
H1952       H  0.17606153  0.71355669  0.34719089     0.15100
C1953       C  0.12749842  0.80937428  0.44804434    -0.14500
C1954       C  0.11758234  0.82000261  0.42270388    -0.29700
H1955       H  0.12152286  0.80713133  0.47236000     0.14500
H1956       H  0.12332476  0.82114975  0.39813160     0.15100
C1957       C  0.21647851  0.88002554  0.40116237    -0.14500
C1958       C  0.21742159  0.84854503  0.39497256    -0.29700
H1959       H  0.20551602  0.88927941  0.41594135     0.14500
H1960       H  0.22866151  0.83891766  0.38121419     0.15100
C1961       C  0.20727776  0.79991423  0.52844633    -0.14500
C1962       C  0.21997731  0.78001867  0.53953077    -0.29700
H1963       H  0.20450026  0.82196152  0.54161393     0.14500
H1964       H  0.22289936  0.75810781  0.52623048     0.15100
C1965       C  0.19570110  0.93980965  0.86095724    -0.14500
C1966       C  0.19587886  0.90999629  0.87352391    -0.29700
H1967       H  0.19590820  0.94330785  0.83444248     0.14500
H1968       H  0.19599596  0.90651851  0.90004335     0.15100
C1969       C  0.13865743  0.80333531  0.80928564    -0.14500
C1970       C  0.12508334  0.82404813  0.81309388    -0.29700
H1971       H  0.13572746  0.77800818  0.80601098     0.14500
H1972       H  0.12792986  0.84937464  0.81657496     0.15100
C1973       C  0.21607186  0.80665387  0.70249656    -0.14500
C1974       C  0.21647189  0.83183225  0.72307023    -0.29700
H1975       H  0.20755038  0.78609548  0.70806403     0.14500
H1976       H  0.22539107  0.85194166  0.71790266     0.15100
C1977       C  0.24041509  0.75190948  0.84435162    -0.14500
C1978       C  0.22464353  0.75948248  0.85823053    -0.29700
H1979       H  0.24529512  0.76543656  0.82321711     0.14500
H1980       H  0.21948444  0.74568311  0.87894490     0.15100
C1981       C  0.22540228  0.58750935  0.88477698    -0.14500
C1982       C  0.24058163  0.59629410  0.90022994    -0.29700
H1983       H  0.22094254  0.60037391  0.86300143     0.14500
H1984       H  0.24481325  0.58363007  0.92229309     0.15100
C1985       C  0.32069731  0.80340215  0.13030962    -0.14500
C1986       C  0.31849659  0.83332379  0.11889488    -0.29700
H1987       H  0.32218842  0.79926944  0.15658862     0.14500
H1988       H  0.31711346  0.83754053  0.09260686     0.15100
C1989       C  0.37217982  0.69844978  0.06116895    -0.14500
C1990       C  0.38125273  0.68198562  0.08412922    -0.29700
H1991       H  0.37886973  0.70556218  0.03849380     0.14500
H1992       H  0.37489099  0.67622840  0.10750269     0.15100
C1993       C  0.27806718  0.66371713  0.10527403    -0.14500
C1994       C  0.27790266  0.63243529  0.09777317    -0.29700
H1995       H  0.26680549  0.67423181  0.11826285     0.14500
H1996       H  0.28899708  0.62231351  0.08397577     0.15100
C1997       C  0.30039313  0.69666832  0.95723247    -0.14500
C1998       C  0.29711734  0.72160490  0.97709445    -0.29700
H1999       H  0.31029040  0.67894038  0.96429972     0.14500
H2000       H  0.28743681  0.73971694  0.97009507     0.15100
C2001       C  0.32624837  0.56278210  0.61943984    -0.14500
C2002       C  0.32183882  0.53311629  0.62957044    -0.29700
H2003       H  0.32954026  0.56728456  0.59376549     0.14500
H2004       H  0.31856792  0.52865163  0.65525375     0.15100
C2005       C  0.37871405  0.66265191  0.69026595    -0.14500
C2006       C  0.38486829  0.69299513  0.68936488    -0.29700
H2007       H  0.38805544  0.64294428  0.69296204     0.14500
H2008       H  0.37550626  0.71278504  0.68787710     0.15100
C2009       C  0.28902081  0.70593249  0.64515408    -0.14500
C2010       C  0.28742001  0.73533412  0.65806835    -0.29700
H2011       H  0.28006596  0.69815828  0.62556108     0.14500
H2012       H  0.29627953  0.74304904  0.67782527     0.15100
C2013       C  0.29975184  0.63198259  0.77253195    -0.14500
C2014       C  0.30453018  0.65226939  0.79659199    -0.29700
H2015       H  0.28732478  0.61826698  0.77430011     0.14500
H2016       H  0.31675127  0.66650127  0.79428631     0.15100
loop_ 
_geom_bond_atom_site_label_1 
_geom_bond_atom_site_label_2 
_geom_bond_distance 
_geom_bond_site_symmetry_2 
_ccdc_geom_bond_type 
In1           O3   2.244       .  S
In1           O4   2.249       .  S
In1          O12   2.243       .  S
In1           O6   2.241       .  S
In1           O8   2.261       .  S
In1           O9   2.237       .  S
In1          O10   2.231       .  S
In1          O13   2.254       .  S
C2            O8   1.260       .  A
C2           O10   1.257       .  A
C2         C1005   1.472       .  S
O3           C11   1.258       .  A
O4           C11   1.261       .  A
C5           O12   1.263       .  A
C5            O6   1.263       .  A
C5          C993   1.474       .  S
C7            O9   1.259       .  A
C7           O13   1.258       .  A
C7         C1001   1.471       .  S
C11         C997   1.471       .  S
In14         O16   2.257       .  S
In14         O17   2.251       .  S
In14         O25   2.241       .  S
In14         O19   2.246       .  S
In14         O21   2.253       .  S
In14         O22   2.238       .  S
In14         O23   2.243       .  S
In14         O26   2.255       .  S
C15          O21   1.260       .  A
C15          O23   1.261       .  A
C15         C990   1.473   1_554  S
O16          C24   1.259       .  A
O17          C24   1.260       .  A
C18          O25   1.259       .  A
C18          O19   1.262       .  A
C18         C977   1.471       .  S
C20          O22   1.259       .  A
C20          O26   1.261       .  A
C20         C985   1.472       .  S
C24         C981   1.477       .  S
In27         O29   2.246       .  S
In27         O30   2.256       .  S
In27         O38   2.241       .  S
In27         O32   2.255       .  S
In27         O34   2.252       .  S
In27         O35   2.238       .  S
In27         O36   2.262       .  S
In27         O39   2.255       .  S
C28          O34   1.258       .  A
C28          O36   1.260       .  A
C28         C969   1.476       .  S
O29          C37   1.257       .  A
O30          C37   1.258       .  A
C31          O38   1.259       .  A
C31          O32   1.262       .  A
C31         C989   1.471       .  S
C33          O35   1.259       .  A
C33          O39   1.262       .  A
C33         C974   1.470       .  S
C37        C1006   1.469       .  S
In40         O42   2.267       .  S
In40         O43   2.261       .  S
In40         O51   2.258       .  S
In40         O45   2.271       .  S
In40         O47   2.254       .  S
In40         O48   2.249       .  S
In40         O49   2.259       .  S
In40         O52   2.244       .  S
C41          O47   1.260       .  A
C41          O49   1.259       .  A
C41         C970   1.477       .  S
O42          C50   1.261       .  A
O43          C50   1.257       .  A
C44          O51   1.259       .  A
C44          O45   1.262       .  A
C44         C958   1.483       .  S
C46          O48   1.261       .  A
C46          O52   1.261       .  A
C46         C966   1.472       .  S
C50         C961   1.481       .  S
In53         O55   2.268       .  S
In53         O56   2.256       .  S
In53         O64   2.270       .  S
In53         O58   2.249       .  S
In53         O60   2.247       .  S
In53         O61   2.257       .  S
In53         O62   2.252       .  S
In53         O65   2.253       .  S
C54          O60   1.258       .  A
C54          O62   1.260       .  A
C54         C950   1.471       .  S
O55          C63   1.259       .  A
O56          C63   1.257       .  A
C57          O64   1.261       .  A
C57          O58   1.258       .  A
C57         C941   1.481       .  S
C59          O61   1.261       .  A
C59          O65   1.261       .  A
C59         C953   1.479       .  S
C63         C945   1.478       .  S
In66         O68   2.234       .  S
In66         O69   2.256       .  S
In66         O77   2.258       .  S
In66         O71   2.244       .  S
In66         O73   2.244       .  S
In66         O74   2.248       .  S
In66         O75   2.259       .  S
In66         O78   2.262       .  S
C67          O73   1.259       .  A
C67          O75   1.261       .  A
C67         C937   1.474       .  S
O68          C76   1.257       .  A
O69          C76   1.262       .  A
C70          O77   1.259       .  A
C70          O71   1.259       .  A
C70         C965   1.474       .  S
C72          O74   1.260       .  A
C72          O78   1.262       .  A
C72         C954   1.478       .  S
C76        C1002   1.468       .  S
In79         O81   2.258       .  S
In79         O82   2.244       .  S
In79         O90   2.237       .  S
In79         O84   2.248       .  S
In79         O86   2.262       .  S
In79         O87   2.244       .  S
In79         O88   2.227       .  S
In79         O91   2.249       .  S
C80          O86   1.263       .  A
C80          O88   1.259       .  A
C80         C934   1.475       .  S
O81          C89   1.260       .  A
O82          C89   1.260       .  A
C83          O90   1.260       .  A
C83          O84   1.264       .  A
C83         C978   1.472       .  S
C85          O87   1.260       .  A
C85          O91   1.258       .  A
C85         C929   1.470       .  S
C89         C925   1.475       .  S
In92         O94   2.252       .  S
In92         O95   2.255       .  S
In92        O103   2.248       .  S
In92         O99   2.247       .  S
In92        O100   2.248       .  S
In92        O101   2.255       .  S
In92        O104   2.247       .  S
In92       O1105   2.241       .  S
C93          O99   1.257       .  A
C93         O101   1.262       .  A
C93         C921   1.474       .  S
O94         C102   1.257       .  A
O95         C102   1.259       .  A
C96          O97   1.262       .  A
C96        O1111   1.262   1_545  A
C96         C994   1.475       .  S
O97       In1100   2.249   1_545  S
C98         O100   1.261       .  A
C98         O104   1.261       .  A
C98         C938   1.473       .  S
C102        C917   1.472       .  S
O103       C1104   1.260       .  A
In105       O107   2.240       .  S
In105       O108   2.257       .  S
In105       O116   2.243       .  S
In105       O110   2.249       .  S
In105       O112   2.239       .  S
In105       O113   2.258       .  S
In105       O114   2.246       .  S
In105       O117   2.236       .  S
C106        O112   1.261       .  A
C106        O114   1.259       .  A
C106        C949   1.471       .  S
O107        C115   1.258       .  A
O108        C115   1.262       .  A
C109        O116   1.260       .  A
C109        O110   1.260       .  A
C109        C933   1.471       .  S
C111        O113   1.263       .  A
C111        O117   1.258       .  A
C111        C913   1.471       .  S
C115        C922   1.473       .  S
In118       O120   2.248       .  S
In118       O121   2.252       .  S
In118       O125   2.237       .  S
In118       O126   2.254       .  S
In118       O127   2.261       .  S
In118       O130   2.250       .  S
In118      O1137   2.257   1_545  S
In118      O1131   2.252   1_545  S
C119        O125   1.258       .  A
C119        O127   1.260       .  A
C119        C973   1.473       .  S
O120        C128   1.259       .  A
O121        C128   1.259       .  A
C122        O129   1.258       .  A
C122        O123   1.263       .  A
C122        C957   1.482       .  S
O123      In1126   2.278       .  S
C124        O126   1.262       .  A
C124        O130   1.260       .  A
C124        C910   1.476   1_556  S
C128        C906   1.471       .  S
O129      In1126   2.250       .  S
In131       O133   2.254       .  S
In131       O134   2.252       .  S
In131       O142   2.242       .  S
In131       O136   2.256       .  S
In131       O138   2.251       .  S
In131       O139   2.257       .  S
In131       O140   2.244       .  S
In131       O143   2.252       .  S
C132        O138   1.259       .  A
C132        O140   1.258       .  A
C132        C914   1.470       .  S
O133        C141   1.259       .  A
O134        C141   1.258       .  A
C135        O142   1.263       .  A
C135        O136   1.264       .  A
C135        C942   1.478       .  S
C137        O139   1.260       .  A
C137        O143   1.258       .  A
C137        C901   1.475       .  S
C141        C897   1.472       .  S
In144       O146   2.243       .  S
In144       O147   2.246       .  S
In144       O155   2.249       .  S
In144       O149   2.263       .  S
In144       O151   2.268       .  S
In144       O152   2.259       .  S
In144       O153   2.246       .  S
In144       O156   2.257       .  S
C145        O151   1.262       .  A
C145        O153   1.256       .  A
C145       C1938   1.474       .  S
O146        C154   1.262       .  A
O147        C154   1.262       .  A
C148        O155   1.258       .  A
C148        O149   1.261       .  A
C148        C909   1.476       .  S
C150        O152   1.258       .  A
C150        O156   1.258       .  A
C150        C902   1.476       .  S
C154        C986   1.471       .  S
In157       O159   2.251       .  S
In157       O160   2.257       .  S
In157       O168   2.254       .  S
In157       O162   2.270       .  S
In157       O164   2.246       .  S
In157       O165   2.253       .  S
In157       O166   2.277       .  S
In157       O169   2.254       .  S
C158        O164   1.255       .  A
C158        O166   1.260       .  A
C158        C889   1.476       .  S
O159        C167   1.261       .  A
O160        C167   1.262       .  A
C161        O168   1.260       .  A
C161        O162   1.263       .  A
C161        C881   1.482       .  S
C163        O165   1.261       .  A
C163        O169   1.260       .  A
C163        C893   1.477   1_556  S
C167        C885   1.479       .  S
In170       O172   2.252       .  S
In170       O173   2.260       .  S
In170       O181   2.254       .  S
In170       O175   2.251       .  S
In170       O177   2.249       .  S
In170       O178   2.247       .  S
In170       O179   2.239       .  S
In170       O182   2.252       .  S
C171        O177   1.259       .  A
C171        O179   1.261       .  A
C171        C873   1.471       .  S
O172        C180   1.257       .  A
O173        C180   1.259       .  A
C174        O181   1.261       .  A
C174        O175   1.261       .  A
C174        C866   1.478       .  S
C176        O178   1.260       .  A
C176        O182   1.261       .  A
C176        C878   1.474       .  S
C180        C869   1.474       .  S
In183       O185   2.238       .  S
In183       O186   2.259       .  S
In183       O194   2.248       .  S
In183       O188   2.258       .  S
In183       O190   2.260       .  S
In183       O191   2.248       .  S
In183       O192   2.232       .  S
In183       O195   2.250       .  S
C184        O190   1.263       .  A
C184        O192   1.258       .  A
C184        C862   1.471       .  S
O185        C193   1.259       .  A
O186        C193   1.261       .  A
C187        O194   1.260       .  A
C187        O188   1.262       .  A
C187        C894   1.476       .  S
C189        O191   1.261       .  A
C189        O195   1.260       .  A
C189        C877   1.474       .  S
C193        C858   1.472       .  S
In196       O198   2.245       .  S
In196       O199   2.241       .  S
In196       O207   2.234       .  S
In196       O201   2.265       .  S
In196       O203   2.249       .  S
In196       O204   2.254       .  S
In196       O205   2.261       .  S
In196       O208   2.242       .  S
C197        O203   1.260       .  A
C197        O205   1.258       .  A
C197        C853   1.475       .  S
O198        C206   1.261       .  A
O199        C206   1.263       .  A
C200        O207   1.258       .  A
C200        O201   1.264       .  A
C200        C845   1.474       .  S
C202        O204   1.260       .  A
C202        O208   1.258       .  A
C202        C850   1.472       .  S
C206        C998   1.471       .  S
In209       O211   2.249       .  S
In209       O212   2.264       .  S
In209       O220   2.253       .  S
In209       O214   2.258       .  S
In209       O216   2.248       .  S
In209       O217   2.238       .  S
In209       O218   2.264       .  S
In209       O221   2.268       .  S
C210        O216   1.261       .  A
C210        O218   1.261       .  A
C210        C841   1.480   1_554  S
O211        C219   1.258       .  A
O212        C219   1.261       .  A
C213        O220   1.262       .  A
C213        O214   1.262       .  A
C213        C838   1.480       .  S
C215        O217   1.258       .  A
C215        O221   1.259       .  A
C215        C857   1.476       .  S
C219        C982   1.475       .  S
In222       O224   2.261       .  S
In222       O225   2.241       .  S
In222       O233   2.271       .  S
In222       O227   2.244       .  S
In222       O229   2.258       .  S
In222       O230   2.248       .  S
In222       O231   2.247       .  S
In222       O234   2.265       .  S
C223        O229   1.260       .  A
C223        O231   1.259       .  A
C223        C834   1.474       .  S
O224        C232   1.262       .  A
O225        C232   1.258       .  A
C226        O233   1.261       .  A
C226        O227   1.258       .  A
C226        C842   1.477       .  S
C228        O230   1.259       .  A
C228        O234   1.261       .  A
C228        C890   1.480       .  S
C232        C854   1.473       .  S
In235       O237   2.267       .  S
In235       O238   2.252       .  S
In235       O246   2.237       .  S
In235       O242   2.254       .  S
In235       O243   2.247       .  S
In235       O244   2.252       .  S
In235       O247   2.256       .  S
In235      O1248   2.244       .  S
C236        O242   1.260       .  A
C236        O244   1.261       .  A
C236        C830   1.477       .  S
O237        C245   1.259       .  A
O238        C245   1.256       .  A
C239        O240   1.264       .  A
C239       O1254   1.262       .  A
C239        C837   1.480       .  S
O240      In1243   2.254   1_545  S
C241        O243   1.260       .  A
C241        O247   1.257       .  A
C241        C861   1.474       .  S
C245        C926   1.473       .  S
O246       C1247   1.261       .  A
In248       O250   2.258       .  S
In248       O251   2.240       .  S
In248       O259   2.254       .  S
In248       O253   2.252       .  S
In248       O255   2.263       .  S
In248       O256   2.242       .  S
In248       O257   2.253       .  S
In248       O260   2.237       .  S
C249        O255   1.260       .  A
C249        O257   1.259       .  A
C249        C825   1.478       .  S
O250        C258   1.260       .  A
O251        C258   1.259       .  A
C252        O259   1.259       .  A
C252        O253   1.262       .  A
C252        C846   1.477       .  S
C254        O256   1.259       .  A
C254        O260   1.260       .  A
C254        C821   1.469       .  S
C258        C918   1.473       .  S
In261       O263   2.251       .  S
In261       O264   2.261       .  S
In261       O272   2.254       .  S
In261       O266   2.258       .  S
In261       O268   2.257       .  S
In261       O269   2.250       .  S
In261       O270   2.236       .  S
In261       O273   2.242       .  S
C262        O268   1.262       .  A
C262        O270   1.257       .  A
C262        C874   1.469       .  S
O263        C271   1.259       .  A
O264        C271   1.261       .  A
C265        O272   1.260       .  A
C265        O266   1.260       .  A
C265        C826   1.477       .  S
C267        O269   1.262       .  A
C267        O273   1.260       .  A
C267        C817   1.471       .  S
C271        C829   1.477       .  S
In274       O276   2.241       .  S
In274       O277   2.243       .  S
In274       O281   2.253       .  S
In274       O282   2.239       .  S
In274       O283   2.257       .  S
In274       O286   2.250       .  S
In274      O1293   2.251   1_545  S
In274      O1287   2.241   1_545  S
C275        O281   1.257       .  A
C275        O283   1.256       .  A
C275        C833   1.472       .  S
O276        C284   1.261       .  A
O277        C284   1.260       .  A
C278        O285   1.259       .  A
C278        O279   1.261       .  A
C278        C882   1.483       .  S
O279      In1282   2.269       .  S
C280        O282   1.261       .  A
C280        O286   1.260       .  A
C280        C813   1.473       .  S
C284        C810   1.470       .  S
O285      In1282   2.261       .  S
In287       O289   2.236       .  S
In287       O290   2.247       .  S
In287       O298   2.252       .  S
In287       O292   2.262       .  S
In287       O294   2.240       .  S
In287       O295   2.235       .  S
In287       O296   2.262       .  S
In287       O299   2.249       .  S
C288        O294   1.257       .  A
C288        O296   1.261       .  A
C288        C818   1.473       .  S
O289        C297   1.262       .  A
O290        C297   1.261       .  A
C291        O298   1.258       .  A
C291        O292   1.261       .  A
C291        C865   1.478       .  S
C293        O295   1.260       .  A
C293        O299   1.260       .  A
C293        C805   1.470       .  S
C297        C801   1.472       .  S
In300       O302   2.246       .  S
In300       O303   2.254       .  S
In300       O311   2.243       .  S
In300       O305   2.257       .  S
In300       O307   2.247       .  S
In300       O308   2.257       .  S
In300       O309   2.244       .  S
In300       O312   2.236       .  S
C301        O307   1.260       .  A
C301        O309   1.261       .  A
C301        C849   1.471       .  S
O302        C310   1.258       .  A
O303        C310   1.259       .  A
C304        O311   1.255       .  A
C304        O305   1.259       .  A
C304        C806   1.468       .  S
C306        O308   1.262       .  A
C306        O312   1.258       .  A
C306        C814   1.471       .  S
C310       C1830   1.471   1_545  S
In313       O315   2.250       .  S
In313       O316   2.235       .  S
In313       O324   2.255       .  S
In313       O318   2.244       .  S
In313       O320   2.237       .  S
In313       O321   2.248       .  S
In313       O322   2.256       .  S
In313       O325   2.248       .  S
C314        O320   1.259       .  A
C314        O322   1.260       .  A
C314        C793   1.472       .  S
O315        C323   1.261       .  A
O316        C323   1.261       .  A
C317        O324   1.261       .  A
C317        O318   1.258       .  A
C317        C789   1.474       .  S
C319        O321   1.258       .  A
C319        O325   1.260       .  A
C319        C798   1.471   1_556  S
C323        C905   1.472       .  S
In326       O328   2.252       .  S
In326       O329   2.251       .  S
In326       O333   2.233       .  S
In326       O334   2.249       .  S
In326       O335   2.258       .  S
In326       O338   2.247       .  S
In326      O1345   2.234   1_545  S
In326      O1339   2.252   1_545  S
C327        O333   1.258       .  A
C327        O335   1.260       .  A
C327        C782   1.471       .  S
O328        C336   1.259       .  A
O329        C336   1.258       .  A
C330        O337   1.262       .  A
C330        O331   1.261       .  A
C330        C777   1.477       .  S
O331      In1334   2.246       .  S
C332        O334   1.261       .  A
C332        O338   1.259       .  A
C332        C786   1.472       .  S
C336        C898   1.472       .  S
O337      In1334   2.253       .  S
In339       O341   2.249   1_455  S
In339       O342   2.253       .  S
In339       O350   2.252       .  S
In339       O344   2.250       .  S
In339       O346   2.249   1_455  S
In339       O347   2.247       .  S
In339       O348   2.257       .  S
In339       O351   2.254       .  S
C340        O346   1.259       .  A
C340        O348   1.260   1_655  A
C340        C769   1.475       .  S
O341        C349   1.260       .  A
O342        C349   1.260   1_455  A
C343        O350   1.260       .  A
C343        O344   1.258       .  A
C343        C797   1.472       .  S
C345        O347   1.260       .  A
C345        O351   1.260       .  A
C345        C785   1.473       .  S
C349       C1782   1.474   1_545  S
In352       O354   2.254       .  S
In352       O355   2.251       .  S
In352       O363   2.250       .  S
In352       O357   2.249       .  S
In352       O359   2.248       .  S
In352       O360   2.245       .  S
In352       O361   2.255   1_554  S
In352       O364   2.235       .  S
C353        O359   1.260   1_556  A
C353        O361   1.262       .  A
C353        C765   1.475       .  S
O354        C362   1.260       .  A
O355        C362   1.260       .  A
C356        O363   1.258       .  A
C356        O357   1.261       .  A
C356        C757   1.474       .  S
C358        O360   1.260       .  A
C358        O364   1.258       .  A
C358        C773   1.466       .  S
C362        C761   1.475       .  S
In365       O367   2.241       .  S
In365       O368   2.259       .  S
In365       O376   2.243       .  S
In365       O372   2.259       .  S
In365       O373   2.244       .  S
In365       O374   2.234       .  S
In365       O377   2.236       .  S
In365      O1378   2.252       .  S
C366        O372   1.265       .  A
C366        O374   1.259       .  A
C366        C753   1.474       .  S
O367        C375   1.258       .  A
O368        C375   1.261       .  A
C369        O370   1.259       .  A
C369       O1384   1.260   1_545  A
C369        C741   1.475       .  S
O370      In1373   2.252   1_545  S
C371        O373   1.264       .  A
C371        O377   1.260       .  A
C371        C749   1.471       .  S
C375        C745   1.472       .  S
O376       C1377   1.259       .  A
In378       O380   2.254       .  S
In378       O381   2.257       .  S
In378       O389   2.259       .  S
In378       O383   2.260       .  S
In378       O385   2.248   1_655  S
In378       O386   2.269   1_655  S
In378       O387   2.255   1_655  S
In378       O390   2.238   1_655  S
C379        O385   1.261       .  A
C379        O387   1.262       .  A
C379        C794   1.474       .  S
O380        C388   1.259       .  A
O381        C388   1.260       .  A
C382        O389   1.259       .  A
C382        O383   1.256       .  A
C382        C754   1.476       .  S
C384        O386   1.262       .  A
C384        O390   1.257       .  A
C384        C737   1.473       .  S
C388        C766   1.476       .  S
In391       O393   2.248       .  S
In391       O394   2.275       .  S
In391       O402   2.249       .  S
In391       O396   2.254       .  S
In391       O398   2.264       .  S
In391       O399   2.247       .  S
In391       O400   2.243       .  S
In391       O403   2.257       .  S
C392        O398   1.259       .  A
C392        O400   1.260       .  A
C392        C738   1.477       .  S
O393        C401   1.257       .  A
O394        C401   1.261       .  A
C395        O402   1.262       .  A
C395        O396   1.260       .  A
C395        C790   1.476       .  S
C397        O399   1.262       .  A
C397        O403   1.262       .  A
C397        C734   1.480       .  S
C401        C962   1.479       .  S
In404       O406   2.252       .  S
In404       O407   2.257       .  S
In404       O415   2.257       .  S
In404       O409   2.251       .  S
In404       O411   2.253       .  S
In404       O412   2.252       .  S
In404       O413   2.244       .  S
In404       O416   2.259       .  S
C405        O411   1.258       .  A
C405        O413   1.260       .  A
C405        C725   1.473       .  S
O406        C414   1.260       .  A
O407        C414   1.262       .  A
C408        O415   1.261       .  A
C408        O409   1.260       .  A
C408        C778   1.477       .  S
C410        O412   1.260       .  A
C410        O416   1.260       .  A
C410        C729   1.478       .  S
C414        C946   1.479       .  S
In417       O419   2.255       .  S
In417       O420   2.246   1_455  S
In417       O428   2.254       .  S
In417       O422   2.254       .  S
In417       O424   2.255       .  S
In417       O425   2.279       .  S
In417       O426   2.250   1_455  S
In417       O429   2.256       .  S
C418        O424   1.260   1_655  A
C418        O426   1.256       .  A
C418        C750   1.472       .  S
O419        C427   1.261   1_455  A
O420        C427   1.260       .  A
C421        O428   1.262       .  A
C421        O422   1.261       .  A
C421        C730   1.477       .  S
C423        O425   1.258       .  A
C423        O429   1.255       .  A
C423        C733   1.478       .  S
C427        C721   1.474       .  S
In430       O432   2.258       .  S
In430       O433   2.258       .  S
In430       O441   2.246       .  S
In430       O435   2.252       .  S
In430       O437   2.245       .  S
In430       O438   2.253       .  S
In430       O439   2.252       .  S
In430       O442   2.262       .  S
C431        O437   1.260       .  A
C431        O439   1.262       .  A
C431        C718   1.473       .  S
O432        C440   1.258       .  A
O433        C440   1.260       .  A
C434        O441   1.260       .  A
C434        O435   1.262       .  A
C434        C758   1.474       .  S
C436        O438   1.258       .  A
C436        O442   1.260       .  A
C436        C770   1.476       .  S
C440        C713   1.477       .  S
In443       O445   2.256       .  S
In443       O446   2.256       .  S
In443       O454   2.256       .  S
In443       O448   2.249       .  S
In443       O450   2.249       .  S
In443       O451   2.249       .  S
In443       O452   2.252       .  S
In443       O455   2.257       .  S
C444        O450   1.260       .  A
C444        O452   1.261       .  A
C444        C709   1.475       .  S
O445        C453   1.258       .  A
O446        C453   1.259       .  A
C447        O454   1.261       .  A
C447        O448   1.259       .  A
C447        C742   1.475       .  S
C449        O451   1.258       .  A
C449        O455   1.259       .  A
C449        C722   1.474       .  S
C453        C705   1.475       .  S
In456       O458   2.259       .  S
In456       O459   2.251       .  S
In456       O467   2.253       .  S
In456       O461   2.248       .  S
In456       O463   2.248   1_655  S
In456       O464   2.254   1_655  S
In456       O465   2.244   1_655  S
In456       O468   2.238   1_655  S
C457        O463   1.260       .  A
C457        O465   1.260       .  A
C457        C781   1.470       .  S
O458        C466   1.259       .  A
O459        C466   1.259       .  A
C460        O467   1.259       .  A
C460        O461   1.259       .  A
C460        C710   1.475       .  S
C462        O464   1.261       .  A
C462        O468   1.258       .  A
C462        C726   1.471       .  S
C466        C717   1.476       .  S
In469       O471   2.265       .  S
In469       O472   2.246       .  S
In469       O480   2.253       .  S
In469       O474   2.251       .  S
In469       O476   2.239       .  S
In469       O477   2.261       .  S
In469       O478   2.259       .  S
In469       O481   2.253       .  S
C470        O476   1.262       .  A
C470        O478   1.263       .  A
C470        C701   1.476       .  S
O471        C479   1.259       .  A
O472        C479   1.259       .  A
C473        O480   1.261       .  A
C473        O474   1.260       .  A
C473        C693   1.475       .  S
C475        O477   1.262       .  A
C475        O481   1.257       .  A
C475        C697   1.479       .  S
C479        C746   1.475       .  S
In482       O484   2.262       .  S
In482       O485   2.255       .  S
In482       O493   2.255       .  S
In482       O489   2.258       .  S
In482       O490   2.257       .  S
In482       O491   2.253       .  S
In482       O494   2.243       .  S
In482      O1495   2.258       .  S
C483        O489   1.261   1_556  A
C483        O491   1.260   1_556  A
C483        C690   1.478       .  S
O484        C492   1.258       .  A
O485        C492   1.258       .  A
C486        O487   1.263       .  A
C486       O1501   1.260   1_545  A
C486        C681   1.472       .  S
O487      In1490   2.254   1_545  S
C488        O490   1.261       .  A
C488        O494   1.260       .  A
C488        C685   1.476       .  S
C492        C762   1.476       .  S
O493       C1494   1.260       .  A
In495       O497   2.279       .  S
In495       O498   2.243       .  S
In495       O506   2.264       .  S
In495       O500   2.264       .  S
In495       O502   2.258       .  S
In495       O503   2.256       .  S
In495       O504   2.240       .  S
In495       O507   2.257       .  S
C496        O502   1.262       .  A
C496        O504   1.260       .  A
C496        C674   1.472       .  S
O497        C505   1.261       .  A
O498        C505   1.257       .  A
C499        O506   1.258       .  A
C499        O500   1.257       .  A
C499        C689   1.479       .  S
C501        O503   1.257       .  A
C501        O507   1.259       .  A
C501        C677   1.475       .  S
C505        C702   1.481       .  S
In508       O510   2.257       .  S
In508       O511   2.256       .  S
In508       O519   2.253       .  S
In508       O513   2.244       .  S
In508       O515   2.257       .  S
In508       O516   2.235       .  S
In508       O517   2.240       .  S
In508       O520   2.252       .  S
C509        O515   1.257       .  A
C509        O517   1.257       .  A
C509        C665   1.469       .  S
O510        C518   1.259       .  A
O511        C518   1.257       .  A
C512        O519   1.263       .  A
C512        O513   1.262       .  A
C512        C662   1.479       .  S
C514        O516   1.260       .  A
C514        O520   1.260       .  A
C514        C669   1.472       .  S
C518        C870   1.474       .  S
In521       O523   2.248       .  S
In521       O524   2.252       .  S
In521       O532   2.244       .  S
In521       O526   2.257       .  S
In521       O528   2.258       .  S
In521       O529   2.244       .  S
In521       O530   2.247       .  S
In521       O533   2.239       .  S
C522        O528   1.261       .  A
C522        O530   1.257       .  A
C522        C678   1.474       .  S
O523        C531   1.262       .  A
O524        C531   1.263       .  A
C525        O532   1.261       .  A
C525        O526   1.263       .  A
C525        C653   1.476       .  S
C527        O529   1.263       .  A
C527        O533   1.259       .  A
C527        C657   1.471       .  S
C531        C886   1.478       .  S
In534       O536   2.255       .  S
In534       O537   2.262       .  S
In534       O545   2.236       .  S
In534       O539   2.257       .  S
In534       O541   2.244       .  S
In534       O542   2.254       .  S
In534       O543   2.254       .  S
In534       O546   2.242       .  S
C535        O541   1.261       .  A
C535        O543   1.263       .  A
C535        C686   1.474       .  S
O536        C544   1.257       .  A
O537        C544   1.259       .  A
C538        O545   1.257       .  A
C538        O539   1.260       .  A
C538        C670   1.469       .  S
C540        O542   1.261       .  A
C540        O546   1.257       .  A
C540        C658   1.471       .  S
C544        C650   1.475       .  S
In547       O549   2.253       .  S
In547       O550   2.263       .  S
In547       O558   2.252       .  S
In547       O552   2.240       .  S
In547       O554   2.254       .  S
In547       O555   2.247       .  S
In547       O556   2.242       .  S
In547       O559   2.246       .  S
C548        O554   1.259       .  A
C548        O556   1.259       .  A
C548        C646   1.473       .  S
O549        C557   1.257       .  A
O550        C557   1.260       .  A
C551        O558   1.260       .  A
C551        O552   1.261       .  A
C551        C682   1.474       .  S
C553        O555   1.264       .  A
C553        O559   1.260       .  A
C553        C649   1.475       .  S
C557        C714   1.476       .  S
In560       O562   2.254       .  S
In560       O563   2.256       .  S
In560       O571   2.241       .  S
In560       O565   2.254       .  S
In560       O567   2.244       .  S
In560       O568   2.250       .  S
In560       O569   2.259       .  S
In560       O572   2.246       .  S
C561        O567   1.260       .  A
C561        O569   1.259       .  A
C561        C641   1.474       .  S
O562        C570   1.258       .  A
O563        C570   1.260       .  A
C564        O571   1.262       .  A
C564        O565   1.262       .  A
C564        C694   1.476       .  S
C566        O568   1.260       .  A
C566        O572   1.257       .  A
C566        C637   1.471       .  S
C570        C706   1.475       .  S
In573       O575   2.243       .  S
In573       O576   2.253       .  S
In573       O584   2.255       .  S
In573       O578   2.239       .  S
In573       O580   2.245       .  S
In573       O581   2.239       .  S
In573       O582   2.233       .  S
In573       O585   2.265       .  S
C574        O580   1.262       .  A
C574        O582   1.260       .  A
C574        C666   1.467       .  S
O575        C583   1.258       .  A
O576        C583   1.261       .  A
C577        O584   1.261       .  A
C577        O578   1.258       .  A
C577        C642   1.472       .  S
C579        O581   1.257       .  A
C579        O585   1.259       .  A
C579        C633   1.474       .  S
C583        C645   1.472       .  S
In586       O588   2.257       .  S
In586       O589   2.240       .  S
In586       O597   2.253       .  S
In586       O591   2.246       .  S
In586       O593   2.231       .  S
In586       O594   2.247       .  S
In586       O595   2.257       .  S
In586       O598   2.254       .  S
C587        O593   1.258       .  A
C587        O595   1.260       .  A
C587        C673   1.471       .  S
O588        C596   1.259       .  A
O589        C596   1.258       .  A
C590        O597   1.261       .  A
C590        O591   1.262       .  A
C590        C654   1.477       .  S
C592        O594   1.260       .  A
C592        O598   1.259       .  A
C592        C630   1.475       .  S
C596        C809   1.472       .  S
In599       O601   2.252       .  S
In599       O602   2.242       .  S
In599       O606   2.243       .  S
In599       O607   2.249       .  S
In599       O608   2.261       .  S
In599       O611   2.246       .  S
In599      O1618   2.239   1_545  S
In599      O1612   2.249       .  S
C600        O606   1.256       .  A
C600        O608   1.259       .  A
C600        C634   1.470       .  S
O601        C609   1.261       .  A
O602        C609   1.258       .  A
C603        O610   1.260       .  A
C603        O604   1.262       .  A
C603        C661   1.479       .  S
O604      In1607   2.264       .  S
C605        O607   1.262       .  A
C605        O611   1.259       .  A
C605        C625   1.473       .  S
C609        C802   1.471       .  S
O610      In1607   2.251       .  S
In612       O614   2.239       .  S
In612       O615   2.244       .  S
In612       O623   2.238       .  S
In612       O617   2.258       .  S
In612       O619   2.247       .  S
In612       O620   2.245       .  S
In612       O621   2.238       .  S
In612       O624   2.246       .  S
C613        O619   1.263       .  A
C613        O621   1.259       .  A
C613        C638   1.471       .  S
O614        C622   1.258       .  A
O615        C622   1.261       .  A
C616        O623   1.259       .  A
C616        O617   1.262       .  A
C616        C629   1.473       .  S
C618        O620   1.262       .  A
C618        O624   1.261       .  A
C618        C626   1.474       .  S
C622       C1706   1.469   1_545  S
C625        C626   1.343       .  D
C625        H627   1.087       .  S
C626        H628   1.087       .  S
C629        C630   1.342       .  D
C629        H631   1.087       .  S
C630        H632   1.087       .  S
C633        C634   1.343       .  D
C633        H635   1.086       .  S
C634        H636   1.087       .  S
C637        C638   1.340       .  D
C637        H639   1.086       .  S
C638        H640   1.087       .  S
C641        C642   1.342       .  D
C641        H643   1.087       .  S
C642        H644   1.087       .  S
C645        C646   1.342       .  D
C645        H647   1.087       .  S
C646        H648   1.087       .  S
C649        C650   1.342       .  D
C649        H651   1.087       .  S
C650        H652   1.086       .  S
C653        C654   1.343       .  D
C653        H655   1.087       .  S
C654        H656   1.087       .  S
C657        C658   1.340   1_556  D
C657        H659   1.087       .  S
C658        H660   1.087       .  S
C661        C662   1.345       .  D
C661        H663   1.087       .  S
C662        H664   1.086       .  S
C665        C666   1.341       .  D
C665        H667   1.086       .  S
C666        H668   1.087       .  S
C669        C670   1.341       .  D
C669        H671   1.086       .  S
C670        H672   1.087       .  S
C673       C1682   1.342       .  D
C673        H675   1.086       .  S
C674       C1681   1.344       .  D
C674       H1684   1.087       .  S
H676       C1682   1.087   1_565  S
C677        C678   1.343       .  D
C677        H679   1.087       .  S
C678        H680   1.087       .  S
C681        C682   1.342       .  D
C681        H683   1.086       .  S
C682        H684   1.086       .  S
C685        C686   1.344       .  D
C685        H687   1.087       .  S
C686        H688   1.087       .  S
C689        C690   1.346       .  D
C689        H691   1.087       .  S
C690        H692   1.086       .  S
C693        C694   1.345       .  D
C693        H695   1.087       .  S
C694        H696   1.086       .  S
C697        C698   1.341       .  D
C697        H699   1.087       .  S
C698       C1630   1.477       .  S
C698       H1708   1.087       .  S
H700       C1706   1.087   1_545  S
C701        C702   1.347       .  D
C701        H703   1.087       .  S
C702        H704   1.086       .  S
C705        C706   1.343       .  D
C705        H707   1.087       .  S
C706        H708   1.087       .  S
C709        C710   1.344       .  D
C709        H711   1.087       .  S
C710        H712   1.086       .  S
C713        C714   1.343       .  D
C713        H715   1.087       .  S
C714        H716   1.087       .  S
C717        C718   1.344       .  D
C717        H719   1.087       .  S
C718        H720   1.087       .  S
C721        C722   1.345       .  D
C721        H723   1.086       .  S
C722        H724   1.086       .  S
C725        C726   1.341       .  D
C725        H727   1.086       .  S
C726        H728   1.087       .  S
C729        C730   1.345       .  D
C729        H731   1.087       .  S
C730        H732   1.086       .  S
C733        C734   1.345       .  D
C733        H735   1.087       .  S
C734        H736   1.087       .  S
C737        C738   1.342       .  D
C737        H739   1.087       .  S
C738        H740   1.086       .  S
C741        C742   1.343       .  D
C741        H743   1.087       .  S
C742        H744   1.087       .  S
C745        C746   1.342       .  D
C745        H747   1.087       .  S
C746        H748   1.087       .  S
C749        C750   1.341       .  D
C749        H751   1.086       .  S
C750        H752   1.087       .  S
C753        C754   1.341       .  D
C753        H755   1.087       .  S
C754        H756   1.086       .  S
C757        C758   1.342       .  D
C757        H759   1.086       .  S
C758        H760   1.086       .  S
C761        C762   1.344       .  D
C761        H763   1.087       .  S
C762        H764   1.087       .  S
C765        C766   1.343       .  D
C765        H767   1.087       .  S
C766        H768   1.086       .  S
C769        C770   1.345       .  D
C769        H771   1.086       .  S
C770        H772   1.086       .  S
C773        C774   1.342       .  D
C773        H775   1.087       .  S
C774       C1357   1.467       .  S
C774        H776   1.087       .  S
C777        C778   1.345       .  D
C777        H779   1.087       .  S
C778        H780   1.087       .  S
C781        C782   1.343       .  D
C781        H783   1.087       .  S
C782        H784   1.087       .  S
C785        C786   1.343       .  D
C785        H787   1.087       .  S
C786        H788   1.087       .  S
C789        C790   1.343       .  D
C789        H791   1.086       .  S
C790        H792   1.086       .  S
C793       C1802   1.343       .  D
C793        H795   1.087       .  S
C794       C1801   1.346       .  D
C794       H1804   1.087       .  S
H796       C1802   1.087       .  S
C797        C798   1.342       .  D
C797        H799   1.087       .  S
C798        H800   1.086       .  S
C801        C802   1.341       .  D
C801        H803   1.087       .  S
C802        H804   1.087       .  S
C805        C806   1.341       .  D
C805        H807   1.086       .  S
C806        H808   1.087       .  S
C809        C810   1.343       .  D
C809        H811   1.086       .  S
C810        H812   1.086       .  S
C813        C814   1.341       .  D
C813        H815   1.086       .  S
C814        H816   1.087       .  S
C817       C1826   1.343       .  D
C817        H819   1.087       .  S
C818       C1825   1.344       .  D
C818        H820   1.086       .  S
C821        C822   1.342       .  D
C821        H823   1.087       .  S
C822       C1318   1.470       .  S
C822        H824   1.086       .  S
C825        C826   1.346       .  D
C825        H827   1.087       .  S
C826        H828   1.087       .  S
C829        C830   1.344       .  D
C829        H831   1.087       .  S
C830        H832   1.087       .  S
C833        C834   1.344       .  D
C833        H835   1.087       .  S
C834        H836   1.087       .  S
C837        C838   1.347       .  D
C837        H839   1.086       .  S
C838        H840   1.087       .  S
C841        C842   1.345       .  D
C841        H843   1.087       .  S
C842        H844   1.087       .  S
C845        C846   1.342       .  D
C845        H847   1.086       .  S
C846        H848   1.086       .  S
C849        C850   1.343       .  D
C849        H851   1.087       .  S
C850        H852   1.087       .  S
C853        C854   1.343       .  D
C853        H855   1.087       .  S
C854        H856   1.087       .  S
C857        C858   1.344       .  D
C857        H859   1.086       .  S
C858        H860   1.087       .  S
C861        C862   1.340       .  D
C861        H863   1.086       .  S
C862        H864   1.087       .  S
C865        C866   1.344       .  D
C865        H867   1.087       .  S
C866        H868   1.086       .  S
C869        C870   1.342       .  D
C869        H871   1.086       .  S
C870        H872   1.087       .  S
C873        C874   1.340       .  D
C873        H875   1.086       .  S
C874        H876   1.087       .  S
C877        C878   1.344       .  D
C877        H879   1.087       .  S
C878        H880   1.087       .  S
C881        C882   1.345       .  D
C881        H883   1.087       .  S
C882        H884   1.087       .  S
C885        C886   1.345       .  D
C885        H887   1.086       .  S
C886        H888   1.086       .  S
C889        C890   1.345       .  D
C889        H891   1.086       .  S
C890        H892   1.086       .  S
C893        C894   1.344       .  D
C893        H895   1.086       .  S
C894        H896   1.087       .  S
C897        C898   1.341       .  D
C897        H899   1.087       .  S
C898        H900   1.087       .  S
C901        C902   1.344       .  D
C901        H903   1.087       .  S
C902        H904   1.087       .  S
C905        C906   1.343       .  D
C905        H907   1.086       .  S
C906        H908   1.086       .  S
C909        C910   1.343       .  D
C909        H911   1.087       .  S
C910        H912   1.086       .  S
C913       C1922   1.341       .  D
C913        H915   1.087       .  S
C914       C1921   1.343       .  D
C914        H916   1.086       .  S
C917        C918   1.343       .  D
C917        H919   1.087       .  S
C918        H920   1.087       .  S
C921        C922   1.341       .  D
C921        H923   1.087       .  S
C922        H924   1.087       .  S
C925        C926   1.342       .  D
C925        H927   1.086       .  S
C926        H928   1.087       .  S
C929        C930   1.342       .  D
C929        H931   1.086       .  S
C930       C1153   1.472       .  S
C930        H932   1.087       .  S
C933        C934   1.345       .  D
C933        H935   1.087       .  S
C934        H936   1.087       .  S
C937        C938   1.344       .  D
C937        H939   1.086       .  S
C938        H940   1.087       .  S
C941        C942   1.346       .  D
C941        H943   1.086       .  S
C942        H944   1.087       .  S
C945        C946   1.344       .  D
C945        H947   1.086       .  S
C946        H948   1.086       .  S
C949        C950   1.342       .  D
C949        H951   1.087       .  S
C950        H952   1.087       .  S
C953        C954   1.345       .  D
C953        H955   1.086       .  S
C954        H956   1.087       .  S
C957        C958   1.344       .  D
C957        H959   1.087       .  S
C958        H960   1.087       .  S
C961        C962   1.343       .  D
C961        H963   1.086       .  S
C962        H964   1.086       .  S
C965        C966   1.343       .  D
C965        H967   1.087       .  S
C966        H968   1.087       .  S
C969        C970   1.344       .  D
C969        H971   1.087       .  S
C970        H972   1.087       .  S
C973        C974   1.343       .  D
C973        H975   1.086       .  S
C974        H976   1.087       .  S
C977        C978   1.340       .  D
C977        H979   1.086       .  S
C978        H980   1.087       .  S
C981        C982   1.343       .  D
C981        H983   1.087       .  S
C982        H984   1.087       .  S
C985        C986   1.344       .  D
C985        H987   1.086       .  S
C986        H988   1.087       .  S
C989        C990   1.342       .  D
C989        H991   1.087       .  S
C990        H992   1.087       .  S
C993        C994   1.344       .  D
C993        H995   1.087       .  S
C994        H996   1.087       .  S
C997        C998   1.341       .  D
C997        H999   1.087       .  S
C998       H1000   1.087       .  S
C1001      C1002   1.340       .  D
C1001      H1003   1.086       .  S
C1002      H1004   1.087       .  S
C1005      C1006   1.343       .  D
C1005      H1007   1.087       .  S
C1006      H1008   1.087       .  S
In1009     O1011   2.248       .  S
In1009     O1012   2.249       .  S
In1009     O1020   2.240       .  S
In1009     O1014   2.231       .  S
In1009     O1016   2.256       .  S
In1009     O1017   2.249       .  S
In1009     O1018   2.234       .  S
In1009     O1021   2.250       .  S
C1010      O1016   1.257       .  A
C1010      O1018   1.258       .  A
C1010      C2013   1.469       .  S
O1011      C1019   1.260       .  A
O1012      C1019   1.261       .  A
C1013      O1020   1.263       .  A
C1013      O1014   1.263       .  A
C1013      C2001   1.471       .  S
C1015      O1017   1.259       .  A
C1015      O1021   1.257       .  A
C1015      C2009   1.470       .  S
C1019      C2005   1.473       .  S
In1022     O1024   2.248       .  S
In1022     O1025   2.260       .  S
In1022     O1033   2.241       .  S
In1022     O1027   2.252       .  S
In1022     O1029   2.259       .  S
In1022     O1030   2.252       .  S
In1022     O1031   2.226       .  S
In1022     O1034   2.255       .  S
C1023      O1029   1.262       .  A
C1023      O1031   1.260       .  A
C1023      C1998   1.473   1_554  S
O1024      C1032   1.259       .  A
O1025      C1032   1.263       .  A
C1026      O1033   1.260       .  A
C1026      O1027   1.263       .  A
C1026      C1985   1.475       .  S
C1028      O1030   1.261       .  A
C1028      O1034   1.257       .  A
C1028      C1993   1.475       .  S
C1032      C1989   1.477       .  S
In1035     O1037   2.235       .  S
In1035     O1038   2.249       .  S
In1035     O1046   2.230       .  S
In1035     O1040   2.258       .  S
In1035     O1042   2.242       .  S
In1035     O1043   2.236       .  S
In1035     O1044   2.252       .  S
In1035     O1047   2.255       .  S
C1036      O1042   1.259       .  A
C1036      O1044   1.261       .  A
C1036      C1977   1.470       .  S
O1037      C1045   1.258       .  A
O1038      C1045   1.260       .  A
C1039      O1046   1.258       .  A
C1039      O1040   1.262       .  A
C1039      C1997   1.468       .  S
C1041      O1043   1.257       .  A
C1041      O1047   1.261       .  A
C1041      C1982   1.469       .  S
C1045      C2014   1.467       .  S
In1048     O1050   2.273       .  S
In1048     O1051   2.248       .  S
In1048     O1059   2.255       .  S
In1048     O1053   2.252       .  S
In1048     O1055   2.237       .  S
In1048     O1056   2.264       .  S
In1048     O1057   2.261       .  S
In1048     O1060   2.251       .  S
C1049      O1055   1.258       .  A
C1049      O1057   1.260       .  A
C1049      C1978   1.473       .  S
O1050      C1058   1.261       .  A
O1051      C1058   1.257       .  A
C1052      O1059   1.262       .  A
C1052      O1053   1.260       .  A
C1052      C1966   1.478       .  S
C1054      O1056   1.261       .  A
C1054      O1060   1.259       .  A
C1054      C1974   1.477       .  S
C1058      C1969   1.478       .  S
In1061     O1063   2.255       .  S
In1061     O1064   2.248       .  S
In1061     O1072   2.246       .  S
In1061     O1066   2.251       .  S
In1061     O1068   2.254       .  S
In1061     O1069   2.238       .  S
In1061     O1070   2.237       .  S
In1061     O1073   2.254       .  S
C1062      O1068   1.258       .  A
C1062      O1070   1.260       .  A
C1062      C1958   1.471       .  S
O1063      C1071   1.261       .  A
O1064      C1071   1.259       .  A
C1065      O1072   1.261       .  A
C1065      O1066   1.262       .  A
C1065      C1949   1.476       .  S
C1067      O1069   1.258       .  A
C1067      O1073   1.263       .  A
C1067      C1961   1.472       .  S
C1071      C1953   1.475       .  S
In1074     O1076   2.247       .  S
In1074     O1077   2.236       .  S
In1074     O1085   2.259       .  S
In1074     O1079   2.257       .  S
In1074     O1081   2.268       .  S
In1074     O1082   2.245       .  S
In1074     O1083   2.237       .  S
In1074     O1086   2.254       .  S
C1075      O1081   1.262       .  A
C1075      O1083   1.256       .  A
C1075      C1945   1.472       .  S
O1076      C1084   1.261       .  A
O1077      C1084   1.261       .  A
C1078      O1085   1.259       .  A
C1078      O1079   1.260       .  A
C1078      C1973   1.479       .  S
C1080      O1082   1.257       .  A
C1080      O1086   1.261       .  A
C1080      C1962   1.473       .  S
C1084      C2010   1.471       .  S
In1087     O1089   2.246       .  S
In1087     O1090   2.262       .  S
In1087     O1098   2.248       .  S
In1087     O1092   2.254       .  S
In1087     O1094   2.246       .  S
In1087     O1095   2.252       .  S
In1087     O1096   2.228       .  S
In1087     O1099   2.242       .  S
C1088      O1094   1.264       .  A
C1088      O1096   1.262       .  A
C1088      C1942   1.472       .  S
O1089      C1097   1.257       .  A
O1090      C1097   1.262       .  A
C1091      O1098   1.258       .  A
C1091      O1092   1.262       .  A
C1091      C1986   1.476       .  S
C1093      O1095   1.265       .  A
C1093      O1099   1.259       .  A
C1093      C1937   1.475       .  S
C1097      C1933   1.475       .  S
In1100     O1102   2.251       .  S
In1100     O1103   2.240       .  S
In1100     O1111   2.243       .  S
In1100     O1107   2.248       .  S
In1100     O1108   2.235       .  S
In1100     O1109   2.248       .  S
In1100     O1112   2.254       .  S
C1101      O1107   1.262       .  A
C1101      O1109   1.258       .  A
C1101      C1929   1.474       .  S
O1102      C1110   1.260       .  A
O1103      C1110   1.261       .  A
C1104      O1105   1.259       .  A
C1104      C2002   1.470       .  S
C1106      O1108   1.261       .  A
C1106      O1112   1.260       .  A
C1106      C1946   1.475       .  S
C1110      C1925   1.472       .  S
In1113     O1115   2.264       .  S
In1113     O1116   2.237       .  S
In1113     O1124   2.243       .  S
In1113     O1118   2.251       .  S
In1113     O1120   2.258       .  S
In1113     O1121   2.232       .  S
In1113     O1122   2.236       .  S
In1113     O1125   2.250       .  S
C1114      O1120   1.261       .  A
C1114      O1122   1.257       .  A
C1114      C1957   1.469       .  S
O1115      C1123   1.261       .  A
O1116      C1123   1.256       .  A
C1117      O1124   1.258       .  A
C1117      O1118   1.261       .  A
C1117      C1941   1.471       .  S
C1119      O1121   1.260       .  A
C1119      O1125   1.261       .  A
C1119      C1921   1.471   1_565  S
C1123      C1930   1.471       .  S
In1126     O1128   2.266       .  S
In1126     O1129   2.252       .  S
In1126     O1133   2.241       .  S
In1126     O1134   2.263       .  S
In1126     O1135   2.261       .  S
In1126     O1138   2.248       .  S
C1127      O1133   1.258       .  A
C1127      O1135   1.259       .  A
C1127      C1981   1.473       .  S
O1128      C1136   1.259       .  A
O1129      C1136   1.258       .  A
C1130      O1137   1.261       .  A
C1130      O1131   1.260       .  A
C1130      C1965   1.477       .  S
C1132      O1134   1.262       .  A
C1132      O1138   1.259       .  A
C1132      C1918   1.476   1_556  S
C1136      C1914   1.476       .  S
In1139     O1141   2.254       .  S
In1139     O1142   2.249       .  S
In1139     O1150   2.256       .  S
In1139     O1144   2.247       .  S
In1139     O1146   2.255       .  S
In1139     O1147   2.249       .  S
In1139     O1148   2.243       .  S
In1139     O1151   2.253       .  S
C1140      O1146   1.258       .  A
C1140      O1148   1.259       .  A
C1140      C1922   1.473       .  S
O1141      C1149   1.259       .  A
O1142      C1149   1.261       .  A
C1143      O1150   1.261       .  A
C1143      O1144   1.261       .  A
C1143      C1950   1.477       .  S
C1145      O1147   1.260       .  A
C1145      O1151   1.260       .  A
C1145      C1909   1.475       .  S
C1149      C1905   1.475       .  S
In1152     O1154   2.240       .  S
In1152     O1155   2.261       .  S
In1152     O1163   2.258       .  S
In1152     O1157   2.252       .  S
In1152     O1159   2.248       .  S
In1152     O1160   2.251       .  S
In1152     O1161   2.248       .  S
In1152     O1164   2.258       .  S
C1153      O1159   1.261       .  A
C1153      O1161   1.259       .  A
O1154      C1162   1.257       .  A
O1155      C1162   1.262       .  A
C1156      O1163   1.260       .  A
C1156      O1157   1.260       .  A
C1156      C1917   1.478       .  S
C1158      O1160   1.259       .  A
C1158      O1164   1.259       .  A
C1158      C1910   1.476       .  S
C1162      C1994   1.473       .  S
In1165     O1167   2.255       .  S
In1165     O1168   2.254       .  S
In1165     O1176   2.240       .  S
In1165     O1170   2.256       .  S
In1165     O1172   2.261       .  S
In1165     O1173   2.247       .  S
In1165     O1174   2.246       .  S
In1165     O1177   2.241       .  S
C1166      O1172   1.258       .  A
C1166      O1174   1.258       .  A
C1166      C1897   1.475       .  S
O1167      C1175   1.260       .  A
O1168      C1175   1.259       .  A
C1169      O1176   1.258       .  A
C1169      O1170   1.262       .  A
C1169      C1889   1.472       .  S
C1171      O1173   1.262       .  A
C1171      O1177   1.259       .  A
C1171      C1901   1.471   1_556  S
C1175      C1893   1.477       .  S
In1178     O1180   2.263       .  S
In1178     O1181   2.260       .  S
In1178     O1189   2.254       .  S
In1178     O1183   2.246       .  S
In1178     O1185   2.268       .  S
In1178     O1186   2.246       .  S
In1178     O1187   2.242       .  S
In1178     O1190   2.257       .  S
C1179      O1185   1.259       .  A
C1179      O1187   1.258       .  A
C1179      C1881   1.476       .  S
O1180      C1188   1.259       .  A
O1181      C1188   1.260       .  A
C1182      O1189   1.263       .  A
C1182      O1183   1.263       .  A
C1182      C1874   1.479       .  S
C1184      O1186   1.260       .  A
C1184      O1190   1.260       .  A
C1184      C1886   1.474       .  S
C1188      C1877   1.481       .  S
In1191     O1193   2.234       .  S
In1191     O1194   2.246       .  S
In1191     O1202   2.247       .  S
In1191     O1196   2.245       .  S
In1191     O1198   2.250       .  S
In1191     O1199   2.250       .  S
In1191     O1200   2.234       .  S
In1191     O1203   2.252       .  S
C1192      O1198   1.262       .  A
C1192      O1200   1.259       .  A
C1192      C1870   1.468       .  S
O1193      C1201   1.258       .  A
O1194      C1201   1.262       .  A
C1195      O1202   1.259       .  A
C1195      O1196   1.260       .  A
C1195      C1902   1.471       .  S
C1197      O1199   1.260       .  A
C1197      O1203   1.260       .  A
C1197      C1885   1.474       .  S
C1201      C1866   1.468       .  S
In1204     O1206   2.242       .  S
In1204     O1207   2.261       .  S
In1204     O1215   2.251       .  S
In1204     O1209   2.260       .  S
In1204     O1211   2.259       .  S
In1204     O1212   2.237       .  S
In1204     O1213   2.255       .  S
In1204     O1216   2.251       .  S
C1205      O1211   1.259       .  A
C1205      O1213   1.260       .  A
C1205      C1861   1.477       .  S
O1206      C1214   1.258       .  A
O1207      C1214   1.261       .  A
C1208      O1215   1.259       .  A
C1208      O1209   1.262       .  A
C1208      C1853   1.478       .  S
C1210      O1212   1.257       .  A
C1210      O1216   1.261       .  A
C1210      C1858   1.468       .  S
C1214      C2006   1.475       .  S
In1217     O1219   2.262       .  S
In1217     O1220   2.249       .  S
In1217     O1228   2.228       .  S
In1217     O1222   2.246       .  S
In1217     O1224   2.243       .  S
In1217     O1225   2.246       .  S
In1217     O1226   2.253       .  S
In1217     O1229   2.252       .  S
C1218      O1224   1.259       .  A
C1218      O1226   1.261       .  A
C1218      C1849   1.472   1_554  S
O1219      C1227   1.261       .  A
O1220      C1227   1.257       .  A
C1221      O1228   1.262       .  A
C1221      O1222   1.263       .  A
C1221      C1846   1.471       .  S
C1223      O1225   1.258       .  A
C1223      O1229   1.256       .  A
C1223      C1865   1.469       .  S
C1227      C1990   1.476       .  S
In1230     O1232   2.250       .  S
In1230     O1233   2.261       .  S
In1230     O1241   2.262       .  S
In1230     O1235   2.243       .  S
In1230     O1237   2.256       .  S
In1230     O1238   2.254       .  S
In1230     O1239   2.253       .  S
In1230     O1242   2.237       .  S
C1231      O1237   1.259       .  A
C1231      O1239   1.259       .  A
C1231      C1842   1.475       .  S
O1232      C1240   1.259       .  A
O1233      C1240   1.260       .  A
C1234      O1241   1.259       .  A
C1234      O1235   1.259       .  A
C1234      C1850   1.475       .  S
C1236      O1238   1.262       .  A
C1236      O1242   1.259       .  A
C1236      C1898   1.472       .  S
C1240      C1862   1.476       .  S
In1243     O1245   2.262       .  S
In1243     O1246   2.252       .  S
In1243     O1254   2.248   1_565  S
In1243     O1250   2.262       .  S
In1243     O1251   2.233       .  S
In1243     O1252   2.259       .  S
In1243     O1255   2.252       .  S
C1244      O1250   1.260       .  A
C1244      O1252   1.259       .  A
C1244      C1838   1.480       .  S
O1245      C1253   1.261       .  A
O1246      C1253   1.257       .  A
C1247      O1248   1.262       .  A
C1247      C1845   1.470       .  S
C1249      O1251   1.260       .  A
C1249      O1255   1.259       .  A
C1249      C1869   1.471       .  S
C1253      C1934   1.475       .  S
In1256     O1258   2.239       .  S
In1256     O1259   2.248       .  S
In1256     O1267   2.247       .  S
In1256     O1261   2.267       .  S
In1256     O1263   2.251       .  S
In1256     O1264   2.260       .  S
In1256     O1265   2.271       .  S
In1256     O1268   2.231       .  S
C1257      O1263   1.257       .  A
C1257      O1265   1.257       .  A
C1257      C1833   1.478       .  S
O1258      C1266   1.260       .  A
O1259      C1266   1.264       .  A
C1260      O1267   1.258       .  A
C1260      O1261   1.263       .  A
C1260      C1854   1.478       .  S
C1262      O1264   1.261       .  A
C1262      O1268   1.259       .  A
C1262      C1829   1.473       .  S
C1266      C1926   1.471       .  S
In1269     O1271   2.260       .  S
In1269     O1272   2.261       .  S
In1269     O1280   2.272       .  S
In1269     O1274   2.240       .  S
In1269     O1276   2.258       .  S
In1269     O1277   2.245       .  S
In1269     O1278   2.242       .  S
In1269     O1281   2.265       .  S
C1270      O1276   1.261       .  A
C1270      O1278   1.260       .  A
C1270      C1882   1.473       .  S
O1271      C1279   1.260       .  A
O1272      C1279   1.260       .  A
C1273      O1280   1.261       .  A
C1273      O1274   1.257       .  A
C1273      C1834   1.474       .  S
C1275      O1277   1.259       .  A
C1275      O1281   1.260       .  A
C1275      C1825   1.476   1_565  S
C1279      C1837   1.480       .  S
In1282     O1284   2.270       .  S
In1282     O1285   2.246       .  S
In1282     O1289   2.259       .  S
In1282     O1290   2.256       .  S
In1282     O1291   2.261       .  S
In1282     O1294   2.249       .  S
C1283      O1289   1.259       .  A
C1283      O1291   1.258       .  A
C1283      C1841   1.476       .  S
O1284      C1292   1.263       .  A
O1285      C1292   1.258       .  A
C1286      O1293   1.260       .  A
C1286      O1287   1.262       .  A
C1286      C1890   1.474       .  S
C1288      O1290   1.259       .  A
C1288      O1294   1.261       .  A
C1288      C1821   1.476       .  S
C1292      C1818   1.478       .  S
In1295     O1297   2.278       .  S
In1295     O1298   2.249       .  S
In1295     O1306   2.252       .  S
In1295     O1300   2.256       .  S
In1295     O1302   2.262       .  S
In1295     O1303   2.256       .  S
In1295     O1304   2.244       .  S
In1295     O1307   2.245       .  S
C1296      O1302   1.258       .  A
C1296      O1304   1.258       .  A
C1296      C1826   1.472       .  S
O1297      C1305   1.260       .  A
O1298      C1305   1.256       .  A
C1299      O1306   1.261       .  A
C1299      O1300   1.262       .  A
C1299      C1873   1.478       .  S
C1301      O1303   1.262       .  A
C1301      O1307   1.261       .  A
C1301      C1813   1.478       .  S
C1305      C1809   1.478       .  S
In1308     O1310   2.249       .  S
In1308     O1311   2.237       .  S
In1308     O1319   2.265       .  S
In1308     O1313   2.243       .  S
In1308     O1315   2.243       .  S
In1308     O1316   2.264       .  S
In1308     O1317   2.228       .  S
In1308     O1320   2.230       .  S
C1309      O1315   1.260       .  A
C1309      O1317   1.262       .  A
C1309      C1857   1.469       .  S
O1310      C1318   1.260       .  A
O1311      C1318   1.260       .  A
C1312      O1319   1.263       .  A
C1312      O1313   1.258       .  A
C1312      C1814   1.476       .  S
C1314      O1316   1.265       .  A
C1314      O1320   1.258       .  A
C1314      C1822   1.473       .  S
In1321     O1323   2.247       .  S
In1321     O1324   2.258       .  S
In1321     O1332   2.265       .  S
In1321     O1326   2.247       .  S
In1321     O1328   2.246       .  S
In1321     O1329   2.250       .  S
In1321     O1330   2.268       .  S
In1321     O1333   2.251       .  S
C1322      O1328   1.257       .  A
C1322      O1330   1.261       .  A
C1322      C1801   1.477       .  S
O1323      C1331   1.262       .  A
O1324      C1331   1.262       .  A
C1325      O1332   1.262       .  A
C1325      O1326   1.258       .  A
C1325      C1797   1.478       .  S
C1327      O1329   1.259       .  A
C1327      O1333   1.262       .  A
C1327      C1806   1.474   1_556  S
C1331      C1913   1.478       .  S
In1334     O1336   2.258       .  S
In1334     O1337   2.248       .  S
In1334     O1341   2.255       .  S
In1334     O1342   2.240       .  S
In1334     O1343   2.239       .  S
In1334     O1346   2.259       .  S
C1335      O1341   1.258       .  A
C1335      O1343   1.259       .  A
C1335      C1790   1.470       .  S
O1336      C1344   1.261       .  A
O1337      C1344   1.259       .  A
C1338      O1345   1.261       .  A
C1338      O1339   1.264       .  A
C1338      C1785   1.472       .  S
C1340      O1342   1.259       .  A
C1340      O1346   1.260       .  A
C1340      C1794   1.474       .  S
C1344      C1906   1.474       .  S
In1347     O1349   2.227   1_455  S
In1347     O1350   2.246       .  S
In1347     O1358   2.256       .  S
In1347     O1352   2.247       .  S
In1347     O1354   2.260       .  S
In1347     O1355   2.259       .  S
In1347     O1356   2.245   1_455  S
In1347     O1359   2.250       .  S
C1348      O1354   1.261   1_655  A
C1348      O1356   1.256       .  A
C1348      C1777   1.474       .  S
O1349      C1357   1.261       .  A
O1350      C1357   1.262   1_455  A
C1351      O1358   1.261       .  A
C1351      O1352   1.258       .  A
C1351      C1805   1.474       .  S
C1353      O1355   1.257       .  A
C1353      O1359   1.257       .  A
C1353      C1793   1.472       .  S
In1360     O1362   2.252       .  S
In1360     O1363   2.260       .  S
In1360     O1371   2.244       .  S
In1360     O1365   2.257       .  S
In1360     O1367   2.257       .  S
In1360     O1368   2.256       .  S
In1360     O1369   2.250       .  S
In1360     O1372   2.245       .  S
C1361      O1367   1.260   1_556  A
C1361      O1369   1.259   1_556  A
C1361      C1773   1.476       .  S
O1362      C1370   1.258       .  A
O1363      C1370   1.260       .  A
C1364      O1371   1.260       .  A
C1364      O1365   1.263       .  A
C1364      C1765   1.475       .  S
C1366      O1368   1.261       .  A
C1366      O1372   1.260       .  A
C1366      C1781   1.475       .  S
C1370      C1769   1.474       .  S
In1373     O1375   2.253       .  S
In1373     O1376   2.253       .  S
In1373     O1384   2.252       .  S
In1373     O1380   2.239       .  S
In1373     O1381   2.258       .  S
In1373     O1382   2.246       .  S
In1373     O1385   2.253       .  S
C1374      O1380   1.261       .  A
C1374      O1382   1.260       .  A
C1374      C1761   1.471       .  S
O1375      C1383   1.261       .  A
O1376      C1383   1.262       .  A
C1377      O1378   1.263       .  A
C1377      C1749   1.474       .  S
C1379      O1381   1.256       .  A
C1379      O1385   1.257       .  A
C1379      C1757   1.470       .  S
C1383      C1753   1.478       .  S
In1386     O1388   2.251       .  S
In1386     O1389   2.261       .  S
In1386     O1397   2.250       .  S
In1386     O1391   2.249       .  S
In1386     O1393   2.245       .  S
In1386     O1394   2.258   1_655  S
In1386     O1395   2.248   1_655  S
In1386     O1398   2.249       .  S
C1387      O1393   1.259   1_455  A
C1387      O1395   1.259       .  A
C1387      C1802   1.469   1_565  S
O1388      C1396   1.257       .  A
O1389      C1396   1.260       .  A
C1390      O1397   1.260       .  A
C1390      O1391   1.258       .  A
C1390      C1762   1.471       .  S
C1392      O1394   1.261       .  A
C1392      O1398   1.261   1_455  A
C1392      C1745   1.477       .  S
C1396      C1774   1.475       .  S
In1399     O1401   2.259       .  S
In1399     O1402   2.257       .  S
In1399     O1410   2.260       .  S
In1399     O1404   2.264       .  S
In1399     O1406   2.269       .  S
In1399     O1407   2.257       .  S
In1399     O1408   2.247       .  S
In1399     O1411   2.256       .  S
C1400      O1406   1.261       .  A
C1400      O1408   1.258       .  A
C1400      C1746   1.479       .  S
O1401      C1409   1.260       .  A
O1402      C1409   1.261       .  A
C1403      O1410   1.259       .  A
C1403      O1404   1.258       .  A
C1403      C1798   1.479       .  S
C1405      O1407   1.261       .  A
C1405      O1411   1.261       .  A
C1405      C1742   1.478       .  S
C1409      C1970   1.480       .  S
In1412     O1414   2.255       .  S
In1412     O1415   2.255       .  S
In1412     O1423   2.256       .  S
In1412     O1417   2.234       .  S
In1412     O1419   2.255       .  S
In1412     O1420   2.235       .  S
In1412     O1421   2.246       .  S
In1412     O1424   2.257       .  S
C1413      O1419   1.259       .  A
C1413      O1421   1.260       .  A
C1413      C1733   1.474       .  S
O1414      C1422   1.258       .  A
O1415      C1422   1.260       .  A
C1416      O1423   1.262       .  A
C1416      O1417   1.262       .  A
C1416      C1786   1.475       .  S
C1418      O1420   1.258       .  A
C1418      O1424   1.260       .  A
C1418      C1737   1.472       .  S
C1422      C1954   1.475       .  S
In1425     O1427   2.230   1_455  S
In1425     O1428   2.265   1_455  S
In1425     O1436   2.249       .  S
In1425     O1430   2.249       .  S
In1425     O1432   2.230   1_455  S
In1425     O1433   2.255       .  S
In1425     O1434   2.267       .  S
In1425     O1437   2.257       .  S
C1426      O1432   1.257       .  A
C1426      O1434   1.261   1_655  A
C1426      C1758   1.473       .  S
O1427      C1435   1.257       .  A
O1428      C1435   1.263       .  A
C1429      O1436   1.258       .  A
C1429      O1430   1.258       .  A
C1429      C1738   1.470       .  S
C1431      O1433   1.260       .  A
C1431      O1437   1.260       .  A
C1431      C1741   1.478       .  S
C1435      C1729   1.471       .  S
In1438     O1440   2.244       .  S
In1438     O1441   2.252       .  S
In1438     O1449   2.253       .  S
In1438     O1443   2.244       .  S
In1438     O1445   2.244       .  S
In1438     O1446   2.257       .  S
In1438     O1447   2.240       .  S
In1438     O1450   2.243       .  S
C1439      O1445   1.260       .  A
C1439      O1447   1.260       .  A
C1439      C1726   1.470       .  S
O1440      C1448   1.259       .  A
O1441      C1448   1.263       .  A
C1442      O1449   1.261       .  A
C1442      O1443   1.262       .  A
C1442      C1766   1.476       .  S
C1444      O1446   1.263       .  A
C1444      O1450   1.258       .  A
C1444      C1778   1.474       .  S
C1448      C1721   1.474       .  S
In1451     O1453   2.257       .  S
In1451     O1454   2.259       .  S
In1451     O1462   2.248       .  S
In1451     O1456   2.248       .  S
In1451     O1458   2.250       .  S
In1451     O1459   2.245       .  S
In1451     O1460   2.248       .  S
In1451     O1463   2.251       .  S
C1452      O1458   1.259       .  A
C1452      O1460   1.259       .  A
C1452      C1717   1.473       .  S
O1453      C1461   1.259       .  A
O1454      C1461   1.262       .  A
C1455      O1462   1.260       .  A
C1455      O1456   1.262       .  A
C1455      C1750   1.475       .  S
C1457      O1459   1.262       .  A
C1457      O1463   1.258       .  A
C1457      C1730   1.473       .  S
C1461      C1713   1.480       .  S
In1464     O1466   2.252       .  S
In1464     O1467   2.240       .  S
In1464     O1475   2.248       .  S
In1464     O1469   2.250       .  S
In1464     O1471   2.252   1_655  S
In1464     O1472   2.255   1_655  S
In1464     O1473   2.240   1_655  S
In1464     O1476   2.244   1_655  S
C1465      O1471   1.261       .  A
C1465      O1473   1.259       .  A
C1465      C1789   1.470       .  S
O1466      C1474   1.260       .  A
O1467      C1474   1.259       .  A
C1468      O1475   1.258       .  A
C1468      O1469   1.260       .  A
C1468      C1718   1.473       .  S
C1470      O1472   1.260       .  A
C1470      O1476   1.258       .  A
C1470      C1734   1.472       .  S
C1474      C1725   1.471       .  S
In1477     O1479   2.251       .  S
In1477     O1480   2.260       .  S
In1477     O1488   2.256       .  S
In1477     O1482   2.250       .  S
In1477     O1484   2.258       .  S
In1477     O1485   2.238       .  S
In1477     O1486   2.244       .  S
In1477     O1489   2.255       .  S
C1478      O1484   1.261       .  A
C1478      O1486   1.260       .  A
C1478      C1709   1.476       .  S
O1479      C1487   1.259       .  A
O1480      C1487   1.261       .  A
C1481      O1488   1.262       .  A
C1481      O1482   1.261       .  A
C1481      C1701   1.477       .  S
C1483      O1485   1.258       .  A
C1483      O1489   1.259       .  A
C1483      C1705   1.470       .  S
C1487      C1754   1.478       .  S
In1490     O1492   2.256       .  S
In1490     O1493   2.244       .  S
In1490     O1501   2.237       .  S
In1490     O1497   2.257       .  S
In1490     O1498   2.237       .  S
In1490     O1499   2.248   1_554  S
In1490     O1502   2.257       .  S
C1491      O1497   1.259   1_556  A
C1491      O1499   1.257       .  A
C1491      C1698   1.472       .  S
O1492      C1500   1.261       .  A
O1493      C1500   1.261       .  A
C1494      O1495   1.262       .  A
C1494      C1689   1.478       .  S
C1496      O1498   1.259       .  A
C1496      O1502   1.262       .  A
C1496      C1693   1.473       .  S
C1500      C1770   1.475       .  S
In1503     O1505   2.253       .  S
In1503     O1506   2.251       .  S
In1503     O1514   2.246       .  S
In1503     O1508   2.251       .  S
In1503     O1510   2.241       .  S
In1503     O1511   2.256       .  S
In1503     O1512   2.256       .  S
In1503     O1515   2.229       .  S
C1504      O1510   1.257       .  A
C1504      O1512   1.259       .  A
C1504      C1682   1.469   1_565  S
O1505      C1513   1.260       .  A
O1506      C1513   1.258       .  A
C1507      O1514   1.261       .  A
C1507      O1508   1.260       .  A
C1507      C1697   1.474       .  S
C1509      O1511   1.260       .  A
C1509      O1515   1.260       .  A
C1509      C1685   1.471       .  S
C1513      C1710   1.474       .  S
In1516     O1518   2.272       .  S
In1516     O1519   2.251       .  S
In1516     O1527   2.252       .  S
In1516     O1521   2.249       .  S
In1516     O1523   2.255       .  S
In1516     O1524   2.243       .  S
In1516     O1525   2.240       .  S
In1516     O1528   2.239       .  S
C1517      O1523   1.259       .  A
C1517      O1525   1.260       .  A
C1517      C1673   1.473       .  S
O1518      C1526   1.262       .  A
O1519      C1526   1.259       .  A
C1520      O1527   1.257       .  A
C1520      O1521   1.260       .  A
C1520      C1670   1.473       .  S
C1522      O1524   1.264       .  A
C1522      O1528   1.260       .  A
C1522      C1677   1.471       .  S
C1526      C1878   1.480       .  S
In1529     O1531   2.251       .  S
In1529     O1532   2.260       .  S
In1529     O1540   2.246       .  S
In1529     O1534   2.257       .  S
In1529     O1536   2.262       .  S
In1529     O1537   2.247       .  S
In1529     O1538   2.238       .  S
In1529     O1541   2.250       .  S
C1530      O1536   1.259       .  A
C1530      O1538   1.255       .  A
C1530      C1686   1.467       .  S
O1531      C1539   1.258       .  A
O1532      C1539   1.261       .  A
C1533      O1540   1.261       .  A
C1533      O1534   1.263       .  A
C1533      C1661   1.477       .  S
C1535      O1537   1.261       .  A
C1535      O1541   1.259       .  A
C1535      C1665   1.473   1_556  S
C1539      C1894   1.476       .  S
In1542     O1544   2.258       .  S
In1542     O1545   2.257       .  S
In1542     O1553   2.236       .  S
In1542     O1547   2.246       .  S
In1542     O1549   2.260       .  S
In1542     O1550   2.260       .  S
In1542     O1551   2.250       .  S
In1542     O1554   2.248       .  S
C1543      O1549   1.258       .  A
C1543      O1551   1.260       .  A
C1543      C1694   1.475       .  S
O1544      C1552   1.259       .  A
O1545      C1552   1.259       .  A
C1546      O1553   1.260       .  A
C1546      O1547   1.264       .  A
C1546      C1678   1.471       .  S
C1548      O1550   1.259       .  A
C1548      O1554   1.256       .  A
C1548      C1666   1.472       .  S
C1552      C1658   1.476       .  S
In1555     O1557   2.253       .  S
In1555     O1558   2.257       .  S
In1555     O1566   2.255       .  S
In1555     O1560   2.250       .  S
In1555     O1562   2.242       .  S
In1555     O1563   2.258       .  S
In1555     O1564   2.249       .  S
In1555     O1567   2.253       .  S
C1556      O1562   1.259       .  A
C1556      O1564   1.261       .  A
C1556      C1654   1.471       .  S
O1557      C1565   1.257       .  A
O1558      C1565   1.260       .  A
C1559      O1566   1.261       .  A
C1559      O1560   1.261       .  A
C1559      C1690   1.478       .  S
C1561      O1563   1.260       .  A
C1561      O1567   1.259       .  A
C1561      C1657   1.476       .  S
C1565      C1722   1.475       .  S
In1568     O1570   2.248       .  S
In1568     O1571   2.277       .  S
In1568     O1579   2.249       .  S
In1568     O1573   2.248       .  S
In1568     O1575   2.251       .  S
In1568     O1576   2.263       .  S
In1568     O1577   2.257       .  S
In1568     O1580   2.263       .  S
C1569      O1575   1.258       .  A
C1569      O1577   1.261       .  A
C1569      C1649   1.474       .  S
O1570      C1578   1.256       .  A
O1571      C1578   1.261       .  A
C1572      O1579   1.265       .  A
C1572      O1573   1.263       .  A
C1572      C1702   1.478       .  S
C1574      O1576   1.258       .  A
C1574      O1580   1.258       .  A
C1574      C1645   1.478       .  S
C1578      C1714   1.478       .  S
In1581     O1583   2.251       .  S
In1581     O1584   2.243       .  S
In1581     O1592   2.246       .  S
In1581     O1586   2.250       .  S
In1581     O1588   2.251       .  S
In1581     O1589   2.257       .  S
In1581     O1590   2.244       .  S
In1581     O1593   2.240       .  S
C1582      O1588   1.261       .  A
C1582      O1590   1.259       .  A
C1582      C1674   1.472       .  S
O1583      C1591   1.260       .  A
O1584      C1591   1.260       .  A
C1585      O1592   1.259       .  A
C1585      O1586   1.261       .  A
C1585      C1650   1.474       .  S
C1587      O1589   1.262       .  A
C1587      O1593   1.259       .  A
C1587      C1641   1.473       .  S
C1591      C1653   1.472       .  S
In1594     O1596   2.257       .  S
In1594     O1597   2.262       .  S
In1594     O1605   2.256       .  S
In1594     O1599   2.256       .  S
In1594     O1601   2.264       .  S
In1594     O1602   2.253       .  S
In1594     O1603   2.235       .  S
In1594     O1606   2.261       .  S
C1595      O1601   1.261       .  A
C1595      O1603   1.259       .  A
C1595      C1681   1.475       .  S
O1596      C1604   1.258       .  A
O1597      C1604   1.261       .  A
C1598      O1605   1.260       .  A
C1598      O1599   1.261       .  A
C1598      C1662   1.479       .  S
C1600      O1602   1.261       .  A
C1600      O1606   1.262       .  A
C1600      C1638   1.480       .  S
C1604      C1817   1.479       .  S
In1607     O1609   2.265       .  S
In1607     O1610   2.258       .  S
In1607     O1614   2.261       .  S
In1607     O1615   2.257       .  S
In1607     O1616   2.247       .  S
In1607     O1619   2.255       .  S
C1608      O1614   1.260       .  A
C1608      O1616   1.259       .  A
C1608      C1642   1.476       .  S
O1609      C1617   1.259       .  A
O1610      C1617   1.260       .  A
C1611      O1618   1.260       .  A
C1611      O1612   1.263   1_565  A
C1611      C1669   1.472       .  S
C1613      O1615   1.262       .  A
C1613      O1619   1.261       .  A
C1613      C1633   1.480       .  S
C1617      C1810   1.481       .  S
In1620     O1622   2.242       .  S
In1620     O1623   2.273       .  S
In1620     O1631   2.267       .  S
In1620     O1625   2.264       .  S
In1620     O1627   2.260       .  S
In1620     O1628   2.257       .  S
In1620     O1629   2.257       .  S
In1620     O1632   2.269       .  S
C1621      O1627   1.261       .  A
C1621      O1629   1.260       .  A
C1621      C1646   1.478       .  S
O1622      C1630   1.257       .  A
O1623      C1630   1.263       .  A
C1624      O1631   1.258       .  A
C1624      O1625   1.258       .  A
C1624      C1637   1.481       .  S
C1626      O1628   1.259       .  A
C1626      O1632   1.261       .  A
C1626      C1634   1.480       .  S
C1633      C1634   1.345       .  D
C1633      H1635   1.086       .  S
C1634      H1636   1.087       .  S
C1637      C1638   1.346       .  D
C1637      H1639   1.086       .  S
C1638      H1640   1.086       .  S
C1641      C1642   1.343       .  D
C1641      H1643   1.087       .  S
C1642      H1644   1.086       .  S
C1645      C1646   1.346       .  D
C1645      H1647   1.087       .  S
C1646      H1648   1.087       .  S
C1649      C1650   1.342       .  D
C1649      H1651   1.087       .  S
C1650      H1652   1.087       .  S
C1653      C1654   1.342       .  D
C1653      H1655   1.087       .  S
C1654      H1656   1.087       .  S
C1657      C1658   1.344       .  D
C1657      H1659   1.087       .  S
C1658      H1660   1.087       .  S
C1661      C1662   1.344       .  D
C1661      H1663   1.087       .  S
C1662      H1664   1.087       .  S
C1665      C1666   1.342       .  D
C1665      H1667   1.086       .  S
C1666      H1668   1.087       .  S
C1669      C1670   1.341       .  D
C1669      H1671   1.087       .  S
C1670      H1672   1.087       .  S
C1673      C1674   1.343       .  D
C1673      H1675   1.086       .  S
C1674      H1676   1.087       .  S
C1677      C1678   1.340       .  D
C1677      H1679   1.087       .  S
C1678      H1680   1.087       .  S
C1681      H1683   1.086       .  S
C1685      C1686   1.341       .  D
C1685      H1687   1.086       .  S
C1686      H1688   1.087       .  S
C1689      C1690   1.345       .  D
C1689      H1691   1.086       .  S
C1690      H1692   1.086       .  S
C1693      C1694   1.342       .  D
C1693      H1695   1.087       .  S
C1694      H1696   1.087       .  S
C1697      C1698   1.343       .  D
C1697      H1699   1.087       .  S
C1698      H1700   1.086       .  S
C1701      C1702   1.344       .  D
C1701      H1703   1.086       .  S
C1702      H1704   1.087       .  S
C1705      C1706   1.342       .  D
C1705      H1707   1.086       .  S
C1709      C1710   1.345       .  D
C1709      H1711   1.087       .  S
C1710      H1712   1.087       .  S
C1713      C1714   1.343       .  D
C1713      H1715   1.087       .  S
C1714      H1716   1.087       .  S
C1717      C1718   1.343       .  D
C1717      H1719   1.087       .  S
C1718      H1720   1.087       .  S
C1721      C1722   1.342       .  D
C1721      H1723   1.087       .  S
C1722      H1724   1.087       .  S
C1725      C1726   1.343       .  D
C1725      H1727   1.087       .  S
C1726      H1728   1.087       .  S
C1729      C1730   1.340       .  D
C1729      H1731   1.087       .  S
C1730      H1732   1.086       .  S
C1733      C1734   1.342       .  D
C1733      H1735   1.086       .  S
C1734      H1736   1.087       .  S
C1737      C1738   1.343       .  D
C1737      H1739   1.087       .  S
C1738      H1740   1.087       .  S
C1741      C1742   1.345       .  D
C1741      H1743   1.087       .  S
C1742      H1744   1.086       .  S
C1745      C1746   1.346       .  D
C1745      H1747   1.086       .  S
C1746      H1748   1.086       .  S
C1749      C1750   1.342       .  D
C1749      H1751   1.086       .  S
C1750      H1752   1.086       .  S
C1753      C1754   1.344       .  D
C1753      H1755   1.086       .  S
C1754      H1756   1.087       .  S
C1757      C1758   1.345       .  D
C1757      H1759   1.087       .  S
C1758      H1760   1.086       .  S
C1761      C1762   1.342       .  D
C1761      H1763   1.087       .  S
C1762      H1764   1.087       .  S
C1765      C1766   1.343       .  D
C1765      H1767   1.086       .  S
C1766      H1768   1.086       .  S
C1769      C1770   1.343       .  D
C1769      H1771   1.087       .  S
C1770      H1772   1.087       .  S
C1773      C1774   1.343       .  D
C1773      H1775   1.086       .  S
C1774      H1776   1.087       .  S
C1777      C1778   1.340       .  D
C1777      H1779   1.087       .  S
C1778      H1780   1.087       .  S
C1781      C1782   1.345       .  D
C1781      H1783   1.087       .  S
C1782      H1784   1.086       .  S
C1785      C1786   1.343       .  D
C1785      H1787   1.087       .  S
C1786      H1788   1.087       .  S
C1789      C1790   1.341       .  D
C1789      H1791   1.087       .  S
C1790      H1792   1.086       .  S
C1793      C1794   1.344       .  D
C1793      H1795   1.087       .  S
C1794      H1796   1.087       .  S
C1797      C1798   1.344       .  D
C1797      H1799   1.086       .  S
C1798      H1800   1.086       .  S
C1801      H1803   1.086       .  S
C1805      C1806   1.342       .  D
C1805      H1807   1.087       .  S
C1806      H1808   1.087       .  S
C1809      C1810   1.344       .  D
C1809      H1811   1.086       .  S
C1810      H1812   1.086       .  S
C1813      C1814   1.344       .  D
C1813      H1815   1.086       .  S
C1814      H1816   1.087       .  S
C1817      C1818   1.343       .  D
C1817      H1819   1.086       .  S
C1818      H1820   1.087       .  S
C1821      C1822   1.341       .  D
C1821      H1823   1.086       .  S
C1822      H1824   1.087       .  S
C1825      H1827   1.086       .  S
C1826      H1828   1.086       .  S
C1829      C1830   1.344       .  D
C1829      H1831   1.086       .  S
C1830      H1832   1.087       .  S
C1833      C1834   1.343       .  D
C1833      H1835   1.086       .  S
C1834      H1836   1.087       .  S
C1837      C1838   1.346       .  D
C1837      H1839   1.087       .  S
C1838      H1840   1.087       .  S
C1841      C1842   1.344       .  D
C1841      H1843   1.087       .  S
C1842      H1844   1.087       .  S
C1845      C1846   1.343       .  D
C1845      H1847   1.087       .  S
C1846      H1848   1.087       .  S
C1849      C1850   1.343       .  D
C1849      H1851   1.087       .  S
C1850      H1852   1.087       .  S
C1853      C1854   1.343       .  D
C1853      H1855   1.086       .  S
C1854      H1856   1.086       .  S
C1857      C1858   1.340       .  D
C1857      H1859   1.086       .  S
C1858      H1860   1.087       .  S
C1861      C1862   1.344       .  D
C1861      H1863   1.087       .  S
C1862      H1864   1.087       .  S
C1865      C1866   1.340       .  D
C1865      H1867   1.087       .  S
C1866      H1868   1.087       .  S
C1869      C1870   1.341       .  D
C1869      H1871   1.086       .  S
C1870      H1872   1.087       .  S
C1873      C1874   1.345       .  D
C1873      H1875   1.086       .  S
C1874      H1876   1.087       .  S
C1877      C1878   1.345       .  D
C1877      H1879   1.086       .  S
C1878      H1880   1.086       .  S
C1881      C1882   1.345       .  D
C1881      H1883   1.086       .  S
C1882      H1884   1.087       .  S
C1885      C1886   1.344       .  D
C1885      H1887   1.087       .  S
C1886      H1888   1.087       .  S
C1889      C1890   1.342       .  D
C1889      H1891   1.087       .  S
C1890      H1892   1.087       .  S
C1893      C1894   1.344       .  D
C1893      H1895   1.086       .  S
C1894      H1896   1.086       .  S
C1897      C1898   1.343       .  D
C1897      H1899   1.086       .  S
C1898      H1900   1.087       .  S
C1901      C1902   1.341       .  D
C1901      H1903   1.087       .  S
C1902      H1904   1.087       .  S
C1905      C1906   1.343       .  D
C1905      H1907   1.086       .  S
C1906      H1908   1.087       .  S
C1909      C1910   1.344       .  D
C1909      H1911   1.087       .  S
C1910      H1912   1.087       .  S
C1913      C1914   1.344       .  D
C1913      H1915   1.087       .  S
C1914      H1916   1.087       .  S
C1917      C1918   1.344       .  D
C1917      H1919   1.086       .  S
C1918      H1920   1.087       .  S
C1921      H1923   1.087       .  S
C1922      H1924   1.086       .  S
C1925      C1926   1.341       .  D
C1925      H1927   1.087       .  S
C1926      H1928   1.087       .  S
C1929      C1930   1.340       .  D
C1929      H1931   1.087       .  S
C1930      H1932   1.087       .  S
C1933      C1934   1.341       .  D
C1933      H1935   1.086       .  S
C1934      H1936   1.086       .  S
C1937      C1938   1.340   1_565  D
C1937      H1939   1.087       .  S
C1938      H1940   1.087       .  S
C1941      C1942   1.343       .  D
C1941      H1943   1.087       .  S
C1942      H1944   1.087       .  S
C1945      C1946   1.342       .  D
C1945      H1947   1.087       .  S
C1946      H1948   1.086       .  S
C1949      C1950   1.344       .  D
C1949      H1951   1.087       .  S
C1950      H1952   1.087       .  S
C1953      C1954   1.343       .  D
C1953      H1955   1.086       .  S
C1954      H1956   1.086       .  S
C1957      C1958   1.341       .  D
C1957      H1959   1.087       .  S
C1958      H1960   1.086       .  S
C1961      C1962   1.340       .  D
C1961      H1963   1.087       .  S
C1962      H1964   1.087       .  S
C1965      C1966   1.344       .  D
C1965      H1967   1.086       .  S
C1966      H1968   1.086       .  S
C1969      C1970   1.344       .  D
C1969      H1971   1.086       .  S
C1970      H1972   1.086       .  S
C1973      C1974   1.344       .  D
C1973      H1975   1.087       .  S
C1974      H1976   1.087       .  S
C1977      C1978   1.343       .  D
C1977      H1979   1.087       .  S
C1978      H1980   1.087       .  S
C1981      C1982   1.342       .  D
C1981      H1983   1.087       .  S
C1982      H1984   1.087       .  S
C1985      C1986   1.342       .  D
C1985      H1987   1.086       .  S
C1986      H1988   1.086       .  S
C1989      C1990   1.342       .  D
C1989      H1991   1.086       .  S
C1990      H1992   1.086       .  S
C1993      C1994   1.341       .  D
C1993      H1995   1.086       .  S
C1994      H1996   1.087       .  S
C1997      C1998   1.342       .  D
C1997      H1999   1.086       .  S
C1998      H2000   1.086       .  S
C2001      C2002   1.342       .  D
C2001      H2003   1.086       .  S
C2002      H2004   1.086       .  S
C2005      C2006   1.344       .  D
C2005      H2007   1.086       .  S
C2006      H2008   1.086       .  S
C2009      C2010   1.342       .  D
C2009      H2011   1.087       .  S
C2010      H2012   1.087       .  S
C2013      C2014   1.341       .  D
C2013      H2015   1.087       .  S
C2014      H2016   1.087       .  S
