geometry optimzed in LAMMPS
_audit_creation_date              2020-11-30 
_audit_creation_method            'lammps2cif' 
_symmetry_space_group_name_H-M    'P1' 
_symmetry_Int_Tables_number       1 
_symmetry_cell_setting            triclinic 
loop_ 
_symmetry_equiv_pos_as_xyz 
  x,y,z 
_cell_length_a                    29.75597614 
_cell_length_b                    29.207627037820295 
_cell_length_c                    30.441366966857093 
_cell_angle_alpha                 89.33499154351242 
_cell_angle_beta                  92.52140482726578 
_cell_angle_gamma                 90.90548779938305 
loop_ 
_atom_site_label 
_atom_site_type_symbol 
_atom_site_fract_x 
_atom_site_fract_y 
_atom_site_fract_z 
_atom_site_charge 
O1          O  0.50992620  0.61265538  0.68477018    -0.78300
C2          C  0.59797005  0.61633374  0.54649741     0.82700
O3          O  0.63923280  0.68477736  0.69581569    -0.79400
O4          O  0.59892598  0.75021312  0.53768591    -0.80900
O5          O  0.45486153  0.75809186  0.60265047    -0.80700
O6          O  0.46807639  0.67460405  0.69359231    -0.79300
Zn7        Zn  0.55390857  0.63142191  0.63570994     1.55700
O8          O  0.49692207  0.75667238  0.54352286    -0.80700
Cd9        Cd  0.49256624  0.71761645  0.64541533     1.59700
Cd10       Cd  0.60311646  0.72855342  0.65034865     1.59600
O11         O  0.50615903  0.77270780  0.68098622    -0.80700
O12         O  0.54989170  0.69601867  0.62311627    -1.91200
Cd13       Cd  0.54817968  0.70851324  0.55820911     1.59900
O14         O  0.57953965  0.78912465  0.67966253    -0.80700
O15         O  0.57964609  0.65212338  0.52885427    -0.79300
C16         C  0.63382072  0.64133322  0.69958726     0.83200
C17         C  0.48332315  0.63625687  0.70751311     0.82900
O18         O  0.58525584  0.60024733  0.58360148    -0.78300
C19         C  0.46740599  0.77571948  0.56664865     0.83700
O20         O  0.60360191  0.62029263  0.67737919    -0.78400
C21         C  0.53926773  0.79887673  0.68965322     0.83800
C22         C  0.63781889  0.74555824  0.55507828     0.84100
O23         O  0.64383955  0.73732700  0.59638833    -0.80800
O24         O  0.77194623  0.68397089  0.27873139    -0.78300
C25         C  0.88583733  0.78732280  0.32293694     0.82700
O26         O  0.87112457  0.61934763  0.38786692    -0.79400
O27         O  0.85687467  0.78563869  0.44413624    -0.80900
O28         O  0.70621355  0.76060981  0.38723589    -0.80700
O29         O  0.71681393  0.66012593  0.31961375    -0.79300
Zn30       Zn  0.82468747  0.70050246  0.31999758     1.55700
O31         O  0.75713021  0.80839636  0.41387265    -0.80700
Cd32       Cd  0.73394808  0.69830679  0.37589194     1.59700
Cd33       Cd  0.83220925  0.66900512  0.42169599     1.59600
O34         O  0.71419547  0.66012007  0.42820816    -0.80700
O35         O  0.80151773  0.71060941  0.37764518    -1.91200
Cd36       Cd  0.81478625  0.77814125  0.39141813     1.59900
O37         O  0.77927371  0.63809754  0.46096470    -0.80700
O38         O  0.86165382  0.80844498  0.34965261    -0.79300
C39         C  0.87777757  0.61701163  0.34649438     0.83200
C40         C  0.74620537  0.65148508  0.29171211     0.82900
O41         O  0.87289015  0.74890682  0.30666240    -0.78300
C42         C  0.72466788  0.78059567  0.42055770     0.83700
O43         O  0.86035568  0.64540016  0.31947834    -0.78400
C44         C  0.73564496  0.63863900  0.45860477     0.83800
C45         C  0.88533384  0.75740069  0.45926895     0.84100
O46         O  0.88036364  0.71383759  0.45392048    -0.80800
O47         O  0.87879419  0.54126788  0.19788086    -0.78300
C48         C  0.81217770  0.53209606  0.05474074     0.82700
O49         O  0.78355159  0.46269837  0.21606886    -0.79400
O50         O  0.80207458  0.39744345  0.06086623    -0.80900
O51         O  0.94491516  0.39740255  0.12604238    -0.80700
O52         O  0.94034035  0.49907058  0.19934726    -0.79300
Zn53       Zn  0.83763199  0.51895640  0.14727222     1.55700
O54         O  0.90838014  0.40276526  0.06035715    -0.80700
Cd55       Cd  0.91180921  0.44418630  0.16487908     1.59700
Cd56       Cd  0.80518269  0.41872138  0.16659897     1.59600
O57         O  0.90402555  0.40395570  0.21778396    -0.80700
O58         O  0.85112915  0.45669605  0.13758889    -1.91200
Cd59       Cd  0.85245564  0.44225872  0.07421317     1.59900
O60         O  0.84421508  0.36491420  0.19235732    -0.80700
O61         O  0.82288066  0.49496293  0.03665658    -0.79300
C62         C  0.77576183  0.50568584  0.21218588     0.83200
C63         C  0.91600470  0.52924382  0.21642610     0.82900
O64         O  0.83659195  0.54823490  0.08680807    -0.78300
C65         C  0.93746673  0.38356897  0.08661816     0.83700
O66         O  0.77834628  0.52539703  0.17496691    -0.78400
C67         C  0.88336324  0.36652835  0.21162030     0.83800
C68         C  0.76590408  0.38441290  0.07780134     0.84100
O69         O  0.75747380  0.39271650  0.11794089    -0.80800
C70         C  0.71042497  0.59466356  0.07790296     0.80400
N71         N  0.67956077  0.58119223  0.04556845    -0.77900
C72         C  0.69249840  0.55186462  0.01356490     0.82900
N73         N  0.73620917  0.53671767  0.01474420    -0.77800
C74         C  0.76684901  0.55168388  0.04625107     0.83000
N75         N  0.75314674  0.58015057  0.07689362    -0.79600
C76         C  0.97320448  0.54016375  0.32671280     0.80400
N77         N  0.96446294  0.52969708  0.28375884    -0.77900
C78         C  0.92761047  0.54578311  0.26155839     0.82900
N79         N  0.89859999  0.57193552  0.28340632    -0.77800
C80         C  0.90652004  0.58245007  0.32680418     0.83000
N81         N  0.94465952  0.56728519  0.34821295    -0.79600
O82         O  0.53687261  0.36260878  0.86764524    -0.78300
C83         C  0.66905785  0.38009057  0.94496712     0.82700
O84         O  0.51327759  0.47753204  0.96922089    -0.79400
O85         O  0.67794458  0.51190212  0.94758571    -0.80900
O86         O  0.61576844  0.48920230  0.79083574    -0.80700
O87         O  0.51792858  0.41441437  0.81634718    -0.79300
Zn88       Zn  0.57409015  0.40098008  0.91105798     1.55700
O89         O  0.67321071  0.50431095  0.83887446    -0.80700
Cd90       Cd  0.56655029  0.46651456  0.83247635     1.59700
Cd91       Cd  0.56461832  0.51133212  0.93329921     1.59600
O92         O  0.53350522  0.52503167  0.82528054    -0.80700
O93         O  0.58960216  0.46261477  0.89457805    -1.91200
Cd94       Cd  0.65585093  0.47033147  0.89674804     1.59900
O95         O  0.53721805  0.56230844  0.88912827    -0.80700
O96         O  0.68663593  0.41075837  0.92042617    -0.79300
C97         C  0.50510466  0.43428452  0.97217211     0.83200
C98         C  0.51115475  0.37583513  0.83556739     0.82900
O99         O  0.62681014  0.37197629  0.94411918    -0.78300
C100        C  0.65269982  0.51009217  0.80140895     0.83700
O101        O  0.52763200  0.40539683  0.95241026    -0.78400
C102        C  0.52704924  0.56027504  0.84765206     0.83800
C103        C  0.66031922  0.53385186  0.97806954     0.84100
O104        O  0.61730173  0.53802885  0.97867122    -0.80800
O105        O  0.44183522  0.27387175  0.98751454    -0.78300
C106        C  0.41313143  0.16050237  0.87935299     0.82700
O107        O  0.33408532  0.27209985  0.86400550    -0.79400
O108        O  0.28475220  0.12950245  0.93864905    -0.80900
O109        O  0.31668847  0.17945327  0.05505012    -0.80700
O110        O  0.39220190  0.28447778  0.03917961    -0.79300
Zn111      Zn  0.40094161  0.24420141  0.94006102     1.55700
O112        O  0.33991629  0.11877485  0.01880114    -0.80700
Cd113      Cd  0.34152761  0.23557375  0.01922484     1.59700
Cd114      Cd  0.29782187  0.23181379  0.91185274     1.59600
O115        O  0.28455516  0.27072999  0.01801776    -0.80700
O116        O  0.34685431  0.21654497  0.95851020    -1.91200
Cd117      Cd  0.34773121  0.14964714  0.95694478     1.59900
O118        O  0.24666774  0.26269129  0.95278944    -0.80700
O119        O  0.38702942  0.13426703  0.90161294    -0.79300
C120        C  0.36915003  0.29712375  0.87285062     0.83200
C121        C  0.42838716  0.29627684  0.02029921     0.82900
O122        O  0.42376279  0.20131198  0.89205526    -0.78300
C123        C  0.31468515  0.13650958  0.04710977     0.83700
O124        O  0.38207871  0.30227814  0.91224510    -0.78400
C125        C  0.24905969  0.27491112  0.99381001     0.83800
C126        C  0.27677837  0.12907670  0.89790001     0.84100
O127        O  0.27998646  0.16723584  0.87689733    -0.80800
C128        C  0.48759131  0.39430556  0.07926596     0.80400
N129        N  0.46797297  0.35203010  0.07192307    -0.77900
C130        C  0.45092092  0.34130750  0.03083619     0.82900
N131        N  0.45738745  0.37169817  0.99719599    -0.77800
C132        C  0.47580181  0.41415569  0.00481313     0.83000
N133        N  0.48798857  0.42546804  0.04616135    -0.79600
C134        C  0.44059135  0.28718676  0.77774925     0.80400
N135        N  0.40477656  0.28378399  0.80379722    -0.77900
C136        C  0.40163438  0.31086022  0.83921979     0.82900
N137        N  0.43610720  0.34124824  0.84924596    -0.77800
C138        C  0.47169941  0.34627252  0.82243417     0.83000
N139        N  0.47378119  0.31869837  0.78718659    -0.79600
C140        C  0.50043439  0.12687480  0.80329058     0.80400
N141        N  0.47583463  0.11288604  0.76730643    -0.77900
C142        C  0.43047357  0.11373103  0.76555970     0.82900
N143        N  0.40898068  0.12826351  0.80211572    -0.77800
C144        C  0.43379734  0.14337895  0.83872300     0.83000
N145        N  0.47933698  0.14235109  0.83866133    -0.79600
C146        C  0.02146367  0.99039258  0.27268621     0.80400
N147        N  0.00911566  0.99273981  0.31515583    -0.77900
C148        C  0.01093224  0.03344563  0.33662987     0.82900
N149        N  0.02461390  0.07186855  0.31479261    -0.77800
C150        C  0.03510684  0.06973137  0.27153064     0.83000
N151        N  0.03393286  0.02912165  0.25129346    -0.79600
C152        C  0.14113740  0.32798564  0.02534616     0.80400
N153        N  0.17452971  0.31331941  0.99961513    -0.77900
C154        C  0.21044519  0.29101434  0.01888645     0.82900
N155        N  0.21263418  0.28416061  0.06384678    -0.77800
C156        C  0.18015355  0.30011784  0.08951568     0.83000
N157        N  0.14498353  0.32130137  0.06956176    -0.79600
C158        C  0.23217851  0.04073169  0.06614523     0.80400
N159        N  0.20056061  0.06233039  0.08941971    -0.77900
C160        C  0.20702366  0.10679338  0.10147067     0.82900
N161        N  0.24553122  0.12943791  0.09004208    -0.77800
C162        C  0.27709002  0.10875771  0.06612902     0.83000
N163        N  0.26968894  0.06453429  0.05406678    -0.79600
C164        C  0.19386399  0.04701557  0.26379013     0.80400
N165        N  0.17619968  0.02441295  0.29831394    -0.77900
C166        C  0.15827762  0.04741924  0.33139543     0.82900
N167        N  0.15768511  0.09463408  0.32971002    -0.77800
C168        C  0.17616178  0.11803038  0.29538269     0.83000
N169        N  0.19409410  0.09362636  0.26302150    -0.79600
C170        C  0.97723443  0.29291988  0.01364330     0.80400
N171        N  0.95957270  0.33229529  0.02822389    -0.77900
C172        C  0.96017551  0.34170873  0.07163856     0.82900
N173        N  0.97887435  0.31072805  0.10074700    -0.77800
C174        C  0.99617450  0.27034227  0.08668656     0.83000
N175        N  0.99574994  0.26217374  0.04293857    -0.79600
C176        C  0.90330013  0.24405055  0.22124995     0.80400
N177        N  0.94760839  0.24281918  0.23457591    -0.77900
C178        C  0.97245004  0.28213896  0.24069584     0.82900
N179        N  0.95199017  0.32329137  0.23378392    -0.77800
C180        C  0.90689363  0.32419443  0.22231106     0.83000
N181        N  0.88367989  0.28487833  0.21555909    -0.79600
O182        O  0.05024068  0.30238859  0.22936505    -0.78300
C183        C  0.17606716  0.28748940  0.13688053     0.82700
O184        O  0.03247336  0.20106686  0.11848503    -0.79400
O185        O  0.19528755  0.15096339  0.16308284    -0.80900
O186        O  0.14589054  0.19315611  0.30724874    -0.80700
O187        O  0.03466560  0.24186739  0.27081444    -0.79300
Zn188      Zn  0.09471436  0.27233210  0.18893969     1.55700
O189        O  0.20232677  0.18861549  0.26321902    -0.80700
Cd190      Cd  0.09145196  0.20360651  0.26399471     1.59700
Cd191      Cd  0.08090285  0.16295631  0.16110483     1.59600
O192        O  0.06360589  0.14309299  0.27249045    -0.80700
O193        O  0.11057296  0.20943075  0.20213138    -1.91200
Cd194      Cd  0.17702927  0.20469057  0.19940707     1.59900
O195        O  0.05400207  0.11228588  0.20579230    -0.80700
O196        O  0.19822770  0.25394412  0.15353546    -0.79300
C197        C  0.02746882  0.24494648  0.11711740     0.83200
C198        C  0.02189909  0.27749396  0.24964315     0.82900
O199        O  0.14422381  0.30567619  0.15731249    -0.78300
C200        C  0.17668487  0.16942262  0.29106835     0.83700
O201        O  0.05085965  0.27079679  0.14188951    -0.78400
C202        C  0.05116266  0.11053550  0.24803029     0.83800
C203        C  0.17606639  0.13004361  0.13105198     0.84100
O204        O  0.13308155  0.13164779  0.12363000    -0.80800
O205        O  0.43729776  0.95358207  0.62845659    -0.78300
C206        C  0.40688526  0.08802534  0.72862928     0.82700
O207        O  0.39334475  0.89679582  0.72807551    -0.79400
O208        O  0.28793175  0.04020024  0.75077333    -0.80900
O209        O  0.31461225  0.04266298  0.59745382    -0.80700
O210        O  0.37428166  0.94455604  0.58731991    -0.79300
Zn211      Zn  0.41314031  0.99320560  0.68241200     1.55700
O212        O  0.26455393  0.05920539  0.64446323    -0.80700
Cd213      Cd  0.32946090  0.98019907  0.62093093     1.59700
Cd214      Cd  0.33059399  0.93384558  0.71554944     1.59600
O215        O  0.27067163  0.94482543  0.61807921    -0.80700
O216        O  0.34900959  0.98834860  0.68138187    -1.91200
Cd217      Cd  0.31738363  0.04727358  0.69365120     1.59900
O218        O  0.28354328  0.89366019  0.67160097    -0.80700
O219        O  0.36477604  0.09355196  0.72051615    -0.79300
C220        C  0.43282675  0.91443022  0.73598011     0.83200
C221        C  0.41509708  0.93485489  0.59573885     0.82900
O222        O  0.42930448  0.05742256  0.70888633    -0.78300
C223        C  0.27380944  0.04954010  0.60522352     0.83700
O224        O  0.43921087  0.95710687  0.73237941    -0.78400
C225        C  0.26325617  0.90585842  0.63488599     0.83800
C226        C  0.29411214  0.01057205  0.78090334     0.84100
O227        O  0.30812321  0.96959176  0.77332593    -0.80800
O228        O  0.02326299  0.05934505  0.41064846    -0.78300
C229        C  0.11861330  0.03455918  0.53144206     0.82700
O230        O  0.13811470  0.97678470  0.37000669    -0.79400
O231        O  0.12843165  0.91568593  0.52785971    -0.80900
O232        O  0.96709848  0.91433054  0.48063603    -0.80700
O233        O  0.97320471  0.00442774  0.39865335    -0.79300
Zn234      Zn  0.07760867  0.03139756  0.44208469     1.55700
O235        O  0.02534470  0.89729836  0.52567059    -0.80700
Cd236      Cd  0.00160247  0.95054545  0.43330307     1.59700
Cd237      Cd  0.10866101  0.92698351  0.41506794     1.59600
O238        O  0.99742120  0.90185960  0.38785651    -0.80700
O239        O  0.06668603  0.96488468  0.44965323    -1.91200
Cd240      Cd  0.07218214  0.94922604  0.51330733     1.59900
O241        O  0.06683962  0.87858258  0.37617185    -0.80700
O242        O  0.08835083  0.00847066  0.54750816    -0.79300
C243        C  0.13815384  0.02109768  0.36799131     0.83200
C244        C  0.99987677  0.03469383  0.38371959     0.82900
O245        O  0.10840921  0.05903026  0.49758752    -0.78300
C246        C  0.98793184  0.88615813  0.50621835     0.83700
O247        O  0.11938581  0.04452985  0.39627186    -0.78400
C248        C  0.02371493  0.87554794  0.36930273     0.83800
C249        C  0.15766635  0.89533858  0.50703441     0.84100
O250        O  0.15593378  0.89429923  0.46434546    -0.80800
C251        C  0.00045252  0.76059167  0.50600166     0.80400
N252        N  0.95947947  0.74632227  0.49081760    -0.77900
C253        C  0.92619449  0.77583102  0.48203116     0.82900
N254        N  0.93411280  0.82176696  0.48809311    -0.77800
C255        C  0.97472266  0.83675902  0.50607920     0.83000
N256        N  0.00783453  0.80563757  0.51493208    -0.79600
C257        C  0.22889135  0.98540571  0.50944108     0.80400
N258        N  0.25576191  0.00457707  0.54113681    -0.77900
C259        C  0.23973714  0.03269389  0.57170107     0.82900
N260        N  0.19453650  0.04161236  0.57085805    -0.77800
C261        C  0.16684547  0.02293809  0.53810226     0.83000
N262        N  0.18470727  0.99623680  0.50702247    -0.79600
C263        C  0.24047908  0.81255381  0.55615714     0.80400
N264        N  0.25237018  0.83301033  0.59531353    -0.77900
C265        C  0.23577819  0.87468792  0.60510420     0.82900
N266        N  0.20604886  0.89452482  0.57521667    -0.77800
C267        C  0.19343235  0.87414370  0.53617106     0.83000
N268        N  0.21111519  0.83327314  0.52686732    -0.79600
C269        C  0.00143537  0.78950209  0.28132319     0.80400
N270        N  0.95653306  0.78155018  0.28471610    -0.77900
C271        C  0.93282034  0.80353331  0.31484354     0.82900
N272        N  0.95545829  0.83307771  0.34271348    -0.77800
C273        C  0.00087269  0.84140532  0.33970030     0.83000
N274        N  0.02361828  0.81960525  0.30864850    -0.79600
C275        C  0.25949357  0.00335169  0.89524623     0.80400
N276        N  0.25690766  0.04804074  0.90666718    -0.77900
C277        C  0.26930164  0.08235223  0.87848638     0.82900
N278        N  0.28256860  0.07084742  0.83742207    -0.77800
C279        C  0.28422556  0.02540919  0.82576325     0.83000
N280        N  0.27363103  0.99286365  0.85504731    -0.79600
C281        C  0.74060061  0.29326269  0.00151331     0.80400
N282        N  0.75145601  0.31463318  0.03989577    -0.77900
C283        C  0.73650255  0.35697542  0.04813953     0.82900
N284        N  0.71053812  0.37847626  0.01641291    -0.77800
C285        C  0.69760004  0.35649704  0.97840036     0.83000
N286        N  0.71305087  0.31400594  0.97085925    -0.79600
C287        C  0.54676646  0.88066251  0.77928415     0.80400
N288        N  0.55842873  0.85169596  0.74756862    -0.77900
C289        C  0.52899112  0.83916891  0.71518484     0.82900
N290        N  0.48645697  0.85636862  0.71380791    -0.77800
C291        C  0.47414537  0.88695466  0.74439417     0.83000
N292        N  0.50458152  0.89877504  0.77751936    -0.79600
C293        C  0.43224658  0.87145644  0.49332051     0.80400
N294        N  0.44441625  0.82970128  0.50894832    -0.77900
C295        C  0.45021224  0.82140181  0.55242583     0.82900
N296        N  0.44454878  0.85656442  0.58140102    -0.77800
C297        C  0.43361353  0.89973483  0.56609728     0.83000
N298        N  0.42665085  0.90625135  0.52184942    -0.79600
C299        C  0.75236580  0.72011333  0.52722660     0.80400
N300        N  0.75673859  0.74085384  0.48703962    -0.77900
C301        C  0.72013982  0.76037242  0.46552965     0.82900
N302        N  0.68004253  0.76199947  0.48618279    -0.77800
C303        C  0.67716249  0.74360801  0.52752417     0.83000
N304        N  0.71248855  0.72185315  0.54599678    -0.79600
C305        C  0.42785626  0.62268036  0.81521407     0.80400
N306        N  0.46297910  0.60778079  0.84105612    -0.77900
C307        C  0.50198243  0.59627817  0.82394203     0.82900
N308        N  0.50753376  0.60299174  0.77992909    -0.77800
C309        C  0.47454154  0.62265540  0.75385929     0.83000
N310        N  0.43457691  0.63198727  0.77173162    -0.79600
C311        C  0.73231325  0.57337087  0.73236540     0.80400
N312        N  0.71452721  0.54204679  0.76013900    -0.77900
C313        C  0.67111868  0.54433969  0.77067937     0.82900
N314        N  0.64534028  0.57896586  0.75336228    -0.77800
C315        C  0.66368688  0.61205711  0.72704241     0.83000
N316        N  0.70696488  0.60812553  0.71559996    -0.79600
C317        C  0.69759610  0.54161018  0.52752255     0.80400
N318        N  0.65601802  0.55529473  0.53970169    -0.77900
C319        C  0.63975202  0.59729459  0.52679482     0.82900
N320        N  0.66600485  0.62504018  0.50114552    -0.77800
C321        C  0.70809145  0.61184217  0.48993680     0.83000
N322        N  0.72283566  0.57045231  0.50321923    -0.79600
C323        C  0.79346984  0.54026681  0.32823763     0.80400
N324        N  0.79068286  0.51598611  0.29039307    -0.77900
C325        C  0.77265905  0.53365439  0.25251446     0.82900
N326        N  0.75775886  0.57782680  0.25212479    -0.77800
C327        C  0.76101320  0.60322635  0.28978345     0.83000
N328        N  0.77790056  0.58373352  0.32768108    -0.79600
O329        O  0.10141332  0.25698939  0.46925848    -0.78300
C330        C  0.19703428  0.39300824  0.47657738     0.82700
O331        O  0.24974912  0.23930823  0.53904279    -0.79400
O332        O  0.20582874  0.39132003  0.60566727    -0.80900
O333        O  0.08361615  0.31937477  0.62731778    -0.80700
O334        O  0.05290355  0.26869527  0.52157504    -0.79300
Zn335      Zn  0.15909861  0.29548354  0.48980130     1.55700
O336        O  0.10887317  0.38931546  0.60987474    -0.80700
Cd337      Cd  0.10104506  0.28249630  0.57063440     1.59700
Cd338      Cd  0.20857058  0.27429563  0.58778363     1.59600
O339        O  0.11790329  0.21714686  0.58434216    -0.80700
O340        O  0.15900624  0.30631877  0.55164255    -1.91200
Cd341      Cd  0.15606426  0.37254275  0.56365634     1.59900
O342        O  0.17092541  0.23251925  0.63404161    -0.80700
O343        O  0.17646917  0.40918161  0.50897666    -0.79300
C344        C  0.24284813  0.23681745  0.49670520     0.83200
C345        C  0.06359245  0.24835691  0.48674743     0.82900
O346        O  0.18904559  0.35243322  0.46252789    -0.78300
C347        C  0.08979154  0.36186590  0.63664072     0.83700
O348        O  0.20857248  0.25466753  0.47780875    -0.78400
C349        C  0.13306657  0.21315110  0.62319300     0.83800
C350        C  0.23515501  0.37144341  0.62970006     0.84100
O351        O  0.24244474  0.32808942  0.62654628    -0.80800
O352        O  0.61419020  0.10746112  0.43294638    -0.78300
C353        C  0.70874574  0.97584506  0.43879239     0.82700
O354        O  0.74677835  0.12868777  0.35740150    -0.79400
O355        O  0.72583293  0.98248470  0.29840900    -0.80900
O356        O  0.56724251  0.00830719  0.29835434    -0.80700
O357        O  0.55675312  0.08983772  0.38682890    -0.79300
Zn358      Zn  0.66645079  0.06729417  0.41302459     1.55700
O359        O  0.62467618  0.96083293  0.29215141    -0.80700
Cd360      Cd  0.59299257  0.05989807  0.33817285     1.59700
Cd361      Cd  0.69756666  0.09358480  0.31293574     1.59600
O362        O  0.58135493  0.11316243  0.29803261    -0.80700
O363        O  0.65942223  0.05300018  0.35109341    -1.91200
Cd364      Cd  0.67415075  0.98783181  0.33960385     1.59900
O365        O  0.64963448  0.14026359  0.28286386    -0.80700
O366        O  0.70426494  0.96012857  0.39943093    -0.79300
C367        C  0.74812004  0.12929960  0.39989231     0.83200
C368        C  0.57370690  0.11365895  0.41842594     0.82900
O369        O  0.68913426  0.01240870  0.44992153    -0.78300
C370        C  0.58599155  0.97575958  0.27871547     0.83700
O371        O  0.71907119  0.10783362  0.42154354    -0.78400
C372        C  0.60625124  0.14255585  0.28035078     0.83800
C373        C  0.73455109  0.00641707  0.26475641     0.84100
O374        O  0.72597240  0.04965421  0.26304858    -0.80800
C375        C  0.50339643  0.17209190  0.49738907     0.80400
N376        N  0.52971512  0.14091151  0.47869859    -0.77900
C377        C  0.54607790  0.14934103  0.43841704     0.82900
N378        N  0.53605256  0.19007572  0.41684822    -0.77800
C379        C  0.51071967  0.22228905  0.43670024     0.83000
N380        N  0.49496227  0.21234739  0.47652878    -0.79600
O381        O  0.45569989  0.28050068  0.42834867    -0.78300
C382        C  0.35081729  0.40568001  0.41760996     0.82700
O383        O  0.34020060  0.25265245  0.32722925    -0.79400
O384        O  0.33693758  0.38295779  0.29573293    -0.80900
O385        O  0.50125936  0.39730621  0.32693733    -0.80700
O386        O  0.50992466  0.28126669  0.38004195    -0.79300
Zn387      Zn  0.40600572  0.32063177  0.39979850     1.55700
O388        O  0.43922106  0.42688223  0.29405895    -0.80700
Cd389      Cd  0.48251203  0.32956024  0.33457557     1.59700
Cd390      Cd  0.39057383  0.29131073  0.29148171     1.59600
O391        O  0.50141496  0.30071446  0.27774054    -0.80700
O392        O  0.41743002  0.33126401  0.34005149    -1.91200
Cd393      Cd  0.39376553  0.39303889  0.33189177     1.59900
O394        O  0.44671003  0.24885447  0.26864558    -0.80700
O395        O  0.36681638  0.42597452  0.38438340    -0.79300
C396        C  0.33428222  0.25440120  0.36899589     0.83200
C397        C  0.49205782  0.26411229  0.41401397     0.82900
O398        O  0.36569166  0.36673125  0.43042637    -0.78300
C399        C  0.48180172  0.42321452  0.29777454     0.83700
O400        O  0.35882026  0.27848228  0.39432164    -0.78400
C401        C  0.48812362  0.26173267  0.26417954     0.83800
C402        C  0.34032084  0.37638306  0.25526402     0.84100
O403        O  0.36295202  0.34193442  0.24275451    -0.80800
C404        C  0.58363988  0.46222713  0.24624026     0.80400
N405        N  0.55436913  0.44602942  0.27512843    -0.77900
C406        C  0.51001054  0.44633392  0.26622570     0.82900
N407        N  0.49399932  0.46193073  0.22636197    -0.77800
C408        C  0.52302000  0.47914463  0.19649760     0.83000
N409        N  0.56828285  0.48041490  0.20695237    -0.79600
C410        C  0.59143359  0.67983747  0.93803372     0.80400
N411        N  0.56592404  0.64626813  0.95580763    -0.77900
C412        C  0.53700202  0.65693525  0.98727950     0.82900
N413        N  0.53358442  0.70144100  0.00094669    -0.77800
C414        C  0.55796069  0.73551000  0.98160068     0.83000
N415        N  0.58664929  0.72389121  0.95057867    -0.79600
O416        O  0.38489769  0.46791944  0.04357222    -0.78300
C417        C  0.50407089  0.49902564  0.15485280     0.82700
O418        O  0.34537577  0.55759326  0.15468908    -0.79400
O419        O  0.48920187  0.64042019  0.12558329    -0.80900
O420        O  0.47110566  0.61114685  0.99098663    -0.80700
O421        O  0.38940354  0.51461738  0.98571515    -0.79300
Zn422      Zn  0.42039196  0.50146451  0.09252036     1.55700
O423        O  0.52558405  0.60228883  0.04317912    -0.80700
Cd424      Cd  0.41737849  0.57298102  0.01444384     1.59700
Cd425      Cd  0.37984459  0.60463710  0.11004920     1.59600
O426        O  0.36508073  0.61315704  0.99761454    -0.80700
O427        O  0.42461128  0.56560072  0.07922851    -1.91200
Cd428      Cd  0.48861204  0.58080310  0.09507242     1.59900
O429        O  0.33386106  0.63334165  0.05958535    -0.80700
O430        O  0.51872388  0.53766891  0.14166842    -0.79300
C431        C  0.34978522  0.51372639  0.15849273     0.83200
C432        C  0.36828016  0.48403575  0.00720869     0.82900
O433        O  0.47046819  0.47904023  0.13520487    -0.78300
C434        C  0.51026132  0.62058200  0.00754429     0.83700
O435        O  0.37653598  0.49263337  0.13557583    -0.78400
C436        C  0.33450303  0.63305018  0.01721400     0.83800
C437        C  0.46222922  0.66820447  0.14113835     0.84100
O438        O  0.41940486  0.66013930  0.14074385    -0.80800
C439        C  0.27344073  0.49222879  0.45999400     0.80400
N440        N  0.23644232  0.46600431  0.46728208    -0.77900
C441        C  0.23528292  0.42050364  0.45957180     0.82900
N442        N  0.27333060  0.40025635  0.44558052    -0.77800
C443        C  0.31130042  0.42608889  0.43818787     0.83000
N444        N  0.31061623  0.47201677  0.44485310    -0.79600
O445        O  0.54916629  0.90533976  0.09255213    -0.78300
C446        C  0.56132478  0.78353203  0.99791641     0.82700
O447        O  0.61940106  0.76059078  0.11928986    -0.79400
O448        O  0.68367661  0.78445509  0.98260012    -0.80900
O449        O  0.70540599  0.93213913  0.02393036    -0.80700
O450        O  0.60989132  0.94875507  0.10754011    -0.79300
Zn451      Zn  0.57836543  0.84621131  0.07602247     1.55700
O452        O  0.69338826  0.88208494  0.96923937    -0.80700
Cd453      Cd  0.65576221  0.91617296  0.06893227     1.59700
Cd454      Cd  0.67055639  0.80839048  0.09568569     1.59600
O455        O  0.69455992  0.91570117  0.12313083    -0.80700
O456        O  0.63744894  0.85340778  0.05824586    -1.91200
Cd457      Cd  0.64420446  0.83835833  0.99513808     1.59900
O458        O  0.70299740  0.84495339  0.14969996    -0.80700
O459        O  0.58159387  0.81323246  0.97406981    -0.79300
C460        C  0.58789136  0.78093135  0.13835320     0.83200
C461        C  0.57111355  0.93375814  0.11757058     0.82900
O462        O  0.55175365  0.79270774  0.03755800    -0.78300
C463        C  0.71819115  0.91209582  0.98931882     0.83700
O464        O  0.58731730  0.82381370  0.13631538    -0.78400
C465        C  0.70864037  0.88850538  0.15281788     0.83800
C466        C  0.71832475  0.77966863  0.00741570     0.84100
O467        O  0.71758608  0.78917753  0.04851542    -0.80800
C468        C  0.83455852  0.74168955  0.01110088     0.80400
N469        N  0.84353598  0.73499807  0.96848589    -0.77900
C470        C  0.81223080  0.74467725  0.93541317     0.82900
N471        N  0.77049487  0.75989717  0.94623699    -0.77800
C472        C  0.76111329  0.76386537  0.99006963     0.83000
N473        N  0.79342388  0.75531960  0.02098236    -0.79600
O474        O  0.98780707  0.05409474  0.49232128    -0.78300
C475        C  0.86515123  0.96187121  0.50570144     0.82700
O476        O  0.86005199  0.12002839  0.56285166    -0.79400
O477        O  0.87336645  0.97241810  0.63776901    -0.80900
O478        O  0.03072322  0.98088193  0.62169204    -0.80700
O479        O  0.03018247  0.08334042  0.54690591    -0.79300
Zn480      Zn  0.92583497  0.04519731  0.51551840     1.55700
O481        O  0.96813219  0.93898662  0.62847496    -0.80700
Cd482      Cd  0.00237089  0.04050090  0.59368814     1.59700
Cd483      Cd  0.90299516  0.08377104  0.61084290     1.59600
O484        O  0.01382190  0.08310346  0.64408800    -0.80700
O485        O  0.93603590  0.03659718  0.57821328    -1.91200
Cd486      Cd  0.91912708  0.97284034  0.59112183     1.59900
O487        O  0.95530944  0.12973769  0.63680137    -0.80700
O488        O  0.88801173  0.94174452  0.53664137    -0.79300
C489        C  0.86251177  0.12304327  0.52071251     0.83200
C490        C  0.01390981  0.08594162  0.50776655     0.82900
O491        O  0.87866629  0.99971163  0.48953247    -0.78300
C492        C  0.00913433  0.94771372  0.63929591     0.83700
O493        O  0.89127419  0.10072279  0.50064360    -0.78400
C494        C  0.99690281  0.12218624  0.64770108     0.83800
C495        C  0.85851919  0.00143254  0.66384710     0.84100
O496        O  0.86647726  0.04487564  0.65949114    -0.80800
C497        C  0.78552897  0.99098043  0.75949890     0.80400
N498        N  0.80671508  0.00836682  0.72423642    -0.77900
C499        C  0.83337540  0.98180375  0.70083852     0.82900
N500        N  0.83940602  0.93707068  0.71348991    -0.77800
C501        C  0.81753917  0.91818461  0.74797432     0.83000
N502        N  0.79122398  0.94608287  0.77103271    -0.79600
O503        O  0.89509205  0.89428389  0.89960699    -0.78300
C504        C  0.99758497  0.87515699  0.78694264     0.82700
O505        O  0.83610935  0.83630338  0.76219779    -0.79400
O506        O  0.96347534  0.75387283  0.76647078    -0.80900
O507        O  0.96531589  0.75142236  0.92691013    -0.80700
O508        O  0.86820942  0.83109469  0.93202373    -0.79300
Zn509      Zn  0.91268734  0.87040128  0.83992020     1.55700
O510        O  0.99986166  0.73746142  0.86505264    -0.80700
Cd511      Cd  0.90721471  0.78214744  0.90012685     1.59700
Cd512      Cd  0.86089340  0.77835468  0.80366285     1.59600
O513        O  0.86787995  0.72684821  0.88704775    -0.80700
O514        O  0.91257058  0.80602155  0.84025635    -1.91200
Cd515      Cd  0.97178195  0.78632454  0.82326241     1.59900
O516        O  0.81256838  0.76325913  0.85553547    -0.80700
O517        O  0.01232960  0.83960933  0.80691377    -0.79300
C518        C  0.83842709  0.87915686  0.77281053     0.83200
C519        C  0.86834392  0.87459382  0.92627692     0.82900
O520        O  0.96105379  0.89364139  0.79757990    -0.78300
C521        C  0.99396872  0.72930744  0.90549659     0.83700
O522        O  0.86181538  0.89246546  0.80580032    -0.78400
C523        C  0.82880892  0.74196547  0.88952652     0.83800
C524        C  0.93931740  0.71808306  0.76489965     0.84100
O525        O  0.89766054  0.71926895  0.77614455    -0.80800
O526        O  0.10035499  0.59338553  0.74295464    -0.78300
C527        C  0.23989642  0.50734970  0.72975515     0.82700
O528        O  0.10564118  0.46039222  0.81404865    -0.79400
O529        O  0.25240963  0.50036956  0.87450026    -0.80900
O530        O  0.21414845  0.65912813  0.85267136    -0.80700
O531        O  0.10046201  0.64421386  0.79742483    -0.79300
Zn532      Zn  0.15311531  0.54842028  0.75573452     1.55700
O533        O  0.26394545  0.60337589  0.86347165    -0.80700
Cd534      Cd  0.15751165  0.62012341  0.83423878     1.59700
Cd535      Cd  0.13572031  0.51461550  0.85630472     1.59600
O536        O  0.13295417  0.61865581  0.89483496    -0.80700
O537        O  0.17118850  0.55602181  0.81726893    -1.91200
Cd538      Cd  0.23676980  0.54768507  0.82606653     1.59900
O539        O  0.08755116  0.55818376  0.88776022    -0.80700
O540        O  0.25657209  0.51585198  0.76853491    -0.79300
C541        C  0.10478018  0.45806077  0.77158248     0.83200
C542        C  0.08109182  0.62538814  0.76373095     0.82900
O543        O  0.20341499  0.52629720  0.71537402    -0.78300
C544        C  0.24791735  0.64198211  0.87419891     0.83700
O545        O  0.12138494  0.48989437  0.74887178    -0.78400
C546        C  0.09649794  0.59847672  0.90302224     0.83800
C547        C  0.22910579  0.49087469  0.90738151     0.84100
O548        O  0.18584072  0.49420934  0.90542532    -0.80800
C549        C  0.97053401  0.61358272  0.70389251     0.80400
N550        N  0.94558178  0.64781603  0.72030675    -0.77900
C551        C  0.96360109  0.67592495  0.75204262     0.82900
N552        N  0.00808643  0.67034982  0.76623651    -0.77800
C553        C  0.03316563  0.63596141  0.74983279     0.83000
N554        N  0.01345347  0.60817412  0.71953085    -0.79600
C555        C  0.00798899  0.40261808  0.71446292     0.80400
N556        N  0.02695381  0.38049225  0.68126429    -0.77900
C557        C  0.07201696  0.38020345  0.67803192     0.82900
N558        N  0.09859441  0.40295861  0.70920064    -0.77800
C559        C  0.07989503  0.42206824  0.74531469     0.83000
N560        N  0.03453097  0.42226403  0.74669182    -0.79600
C561        C  0.31699436  0.41206947  0.71600439     0.80400
N562        N  0.29601350  0.38525878  0.68527861    -0.77900
C563        C  0.25875955  0.40096974  0.66297150     0.82900
N564        N  0.24087114  0.44268017  0.67407218    -0.77800
C565        C  0.26214966  0.46961121  0.70548354     0.83000
N566        N  0.30018672  0.45360057  0.72512429    -0.79600
C567        C  0.75762914  0.91846647  0.54031115     0.80400
N568        N  0.80172611  0.92401406  0.53366730    -0.77900
C569        C  0.81752432  0.94630542  0.49877179     0.82900
N570        N  0.78719124  0.96304090  0.46762965    -0.77800
C571        C  0.74164777  0.95471421  0.47147894     0.83000
N572        N  0.72693849  0.93344890  0.50880850    -0.79600
C573        C  0.97629489  0.17331000  0.42951178     0.80400
N574        N  0.00208762  0.21122295  0.44011868    -0.77900
C575        C  0.03578374  0.20784532  0.47224431     0.82900
N576        N  0.04196067  0.16688831  0.49444104    -0.77800
C577        C  0.01675626  0.12924359  0.48242748     0.83000
N578        N  0.98503683  0.13364226  0.45045738    -0.79600
C579        C  0.05373108  0.21476951  0.71252407     0.80400
N580        N  0.09261509  0.22087232  0.69098419    -0.77900
C581        C  0.10017067  0.19590655  0.65479355     0.82900
N582        N  0.06801071  0.16493801  0.64050961    -0.77800
C583        C  0.02892280  0.15881049  0.66185455     0.83000
N584        N  0.02189960  0.18407114  0.69762920    -0.79600
C585        C  0.48667386  0.77580536  0.20308797     0.80400
N586        N  0.52830453  0.78597942  0.18909331    -0.77900
C587        C  0.54882080  0.75960822  0.15993252     0.82900
N588        N  0.52641549  0.72197382  0.14409862    -0.77800
C589        C  0.48423116  0.71068283  0.15801805     0.83000
N590        N  0.46437792  0.73785064  0.18737658    -0.79600
C591        C  0.80429337  0.95662789  0.17723607     0.80400
N592        N  0.78993935  0.98725936  0.20738287    -0.77900
C593        C  0.74962618  0.97942189  0.22655968     0.82900
N594        N  0.72376232  0.94214304  0.21360349    -0.77800
C595        C  0.73920420  0.91093198  0.18503017     0.83000
N596        N  0.77963068  0.91852655  0.16879105    -0.79600
C597        C  0.25000247  0.71667264  0.97326718     0.80400
N598        N  0.27870285  0.69349411  0.00134435    -0.77900
C599        C  0.30007779  0.65582192  0.98795686     0.82900
N600        N  0.29249790  0.64101921  0.94561983    -0.77800
C601        C  0.26361726  0.66343382  0.91694507     0.83000
N602        N  0.24248214  0.70106163  0.93140450    -0.79600
C603        C  0.79397959  0.21949247  0.47388013     0.80400
N604        N  0.77386595  0.19932537  0.43762871    -0.77900
C605        C  0.78216995  0.15500872  0.42772946     0.82900
N606        N  0.81031979  0.13074470  0.45569363    -0.77800
C607        C  0.83046481  0.15024466  0.49236828     0.83000
N608        N  0.82164122  0.19447195  0.50150547    -0.79600
C609        C  0.26183599  0.46841350  0.23088292     0.80400
N610        N  0.27813816  0.42657119  0.24165871    -0.77900
C611        C  0.31764863  0.41193347  0.22688956     0.82900
N612        N  0.34129287  0.44122695  0.20078874    -0.77800
C613        C  0.32473649  0.48380172  0.18906998     0.83000
N614        N  0.28526338  0.49739247  0.20490408    -0.79600
C615        C  0.24738418  0.48128953  0.02738129     0.80400
N616        N  0.29257934  0.47761702  0.03297559    -0.77900
C617        C  0.31906881  0.47692000  0.99757701     0.82900
N618        N  0.29920057  0.48045741  0.95597204    -0.77800
C619        C  0.25300095  0.48119011  0.95043719     0.83000
N620        N  0.22810945  0.48230888  0.98636468    -0.79600
C621        C  0.48886581  0.95130331  0.20312861     0.80400
N622        N  0.50752155  0.94451554  0.16406270    -0.77900
C623        C  0.55275021  0.94545462  0.16092181     0.82900
N624        N  0.57981449  0.95235385  0.19850906    -0.77800
C625        C  0.56074639  0.95783451  0.23860793     0.83000
N626        N  0.51538108  0.95799022  0.23978614    -0.79600
C627        C  0.59085409  0.23858816  0.20410444     0.80400
N628        N  0.60743351  0.20177565  0.22544301    -0.77900
C629        C  0.58361409  0.17999100  0.25592063     0.82900
N630        N  0.54182934  0.19589223  0.26598135    -0.77800
C631        C  0.52407995  0.23352233  0.24430358     0.83000
N632        N  0.54995058  0.25504884  0.21422107    -0.79600
C633        C  0.32102551  0.15893021  0.43923948     0.80400
N634        N  0.32479309  0.18227234  0.40100175    -0.77900
C635        C  0.30605838  0.22320753  0.39399333     0.82900
N636        N  0.28136065  0.24075012  0.42657502    -0.77800
C637        C  0.27500978  0.21732908  0.46521000     0.83000
N638        N  0.29544740  0.17613505  0.47158471    -0.79600
C639        C  0.04812845  0.66105504  0.99464323     0.80400
N640        N  0.02338695  0.69266600  0.97222070    -0.77900
C641        C  0.02023420  0.69290929  0.92801335     0.82900
N642        N  0.04125073  0.65971650  0.90559941    -0.77800
C643        C  0.06486843  0.62608404  0.92771287     0.83000
N644        N  0.06973113  0.62819475  0.97244269    -0.79600
C645        C  0.82295440  0.97838424  0.97409179     0.80400
N646        N  0.85070923  0.94793278  0.95689522    -0.77900
C647        C  0.83683826  0.90424293  0.94955045     0.82900
N648        N  0.79297396  0.89172076  0.95788604    -0.77800
C649        C  0.76435978  0.92343165  0.97445248     0.83000
N650        N  0.78033553  0.96604159  0.98293455    -0.79600
C651        C  0.09297873  0.89157237  0.71563189     0.80400
N652        N  0.06706308  0.88114183  0.74976190    -0.77900
C653        C  0.02332683  0.89181958  0.74940157     0.82900
N654        N  0.00406024  0.91145252  0.71243354    -0.77800
C655        C  0.02970665  0.92207630  0.67713957     0.83000
N656        N  0.07473709  0.91381747  0.67970082    -0.79600
C657        C  0.73005479  0.49502170  0.39854350    -0.01800
C658        C  0.72992280  0.45775944  0.36926838     0.06800
C659        C  0.77206135  0.43928748  0.36060186    -0.07800
C660        C  0.81023903  0.46806647  0.36524454     0.04200
C661        C  0.80170557  0.51498560  0.37067740    -0.15000
C662        C  0.76846972  0.52365652  0.40075127    -0.08300
C663        C  0.69555291  0.45716805  0.33219065     0.05200
C664        C  0.68443498  0.49898117  0.31089886    -0.09500
C665        C  0.65265077  0.50090161  0.27585318     0.00100
C666        C  0.63090552  0.46046995  0.26158224     0.00000
C667        C  0.64492238  0.41821298  0.28005918    -0.13000
C668        C  0.67659379  0.41636561  0.31541036     0.00500
C669        C  0.63904497  0.54517751  0.25882839     0.39800
C670        C  0.68542903  0.37313571  0.33719939     0.36400
C671        C  0.68861773  0.51031457  0.41589850     0.36100
C672        C  0.85152164  0.45430194  0.34658536     0.36900
N673        N  0.62811912  0.58072393  0.24541971    -0.43900
N674        N  0.69260643  0.33902726  0.35568263    -0.44300
N675        N  0.88433662  0.44347908  0.33085636    -0.41700
N676        N  0.65498992  0.52231650  0.42922104    -0.43100
H677        H  0.76609071  0.55746135  0.41456844     0.13000
H678        H  0.77411945  0.40793730  0.34214287     0.09500
H679        H  0.69937475  0.53078150  0.32269907     0.10600
H680        H  0.62696916  0.38703205  0.27042515     0.16400
C681        C  0.69631106  0.41153446  0.53451950    -0.01800
C682        C  0.74087992  0.40170053  0.52409475     0.06800
C683        C  0.77251121  0.43752350  0.52275719    -0.07800
C684        C  0.75999899  0.48290159  0.52906180     0.04200
C685        C  0.71406483  0.49371427  0.53437798    -0.15000
C686        C  0.68307870  0.45726681  0.53902421    -0.08300
C687        C  0.75489558  0.35489711  0.51195267     0.05200
C688        C  0.76257410  0.34590607  0.46766582    -0.09500
C689        C  0.77579246  0.30237210  0.45447496     0.00100
C690        C  0.78197571  0.26686251  0.48604398     0.00000
C691        C  0.77547197  0.27641908  0.53049664    -0.13000
C692        C  0.76181924  0.31977273  0.54354972     0.00500
C693        C  0.78431200  0.29554924  0.40867583     0.39800
C694        C  0.75508574  0.32730114  0.58954046     0.36400
C695        C  0.66332298  0.37527416  0.53914256     0.36100
C696        C  0.79536096  0.51745452  0.52963522     0.36900
N697        N  0.79124011  0.29006508  0.37200143    -0.43900
N698        N  0.74952103  0.33293909  0.62645747    -0.44300
N699        N  0.82374623  0.54503151  0.53013627    -0.41700
N700        N  0.63717976  0.34597687  0.54334916    -0.43100
H701        H  0.64803013  0.46443810  0.54389916     0.13000
H702        H  0.80718495  0.42996610  0.51633465     0.09500
H703        H  0.75803661  0.37302722  0.44328871     0.10600
H704        H  0.78010874  0.24958721  0.55513088     0.16400
C705        C  0.80915598  0.49881601  0.67644278    -0.01800
C706        C  0.84974000  0.50919573  0.69995630     0.06800
C707        C  0.85368006  0.54931113  0.72492502    -0.07800
C708        C  0.81582255  0.57555659  0.73158726     0.04200
C709        C  0.77411122  0.56156525  0.71261927    -0.15000
C710        C  0.77158265  0.52529745  0.68283916    -0.08300
C711        C  0.88665825  0.47627821  0.70274039     0.05200
C712        C  0.90931948  0.46674230  0.66483192    -0.09500
C713        C  0.94660240  0.43844220  0.66688009     0.00100
C714        C  0.96183465  0.41942419  0.70794762     0.00000
C715        C  0.93705398  0.42660903  0.74527930    -0.13000
C716        C  0.89952621  0.45470202  0.74294789     0.00500
C717        C  0.97050171  0.43343098  0.62694203     0.39800
C718        C  0.87537681  0.46178098  0.78238892     0.36400
C719        C  0.80408144  0.45864924  0.64937509     0.36100
C720        C  0.81952634  0.61416095  0.76072620     0.36900
N721        N  0.98945715  0.42966113  0.59481564    -0.43900
N722        N  0.85600288  0.46755554  0.81394770    -0.44300
N723        N  0.82229886  0.64524578  0.78395854    -0.41700
N724        N  0.80031619  0.42644050  0.62769599    -0.43100
H725        H  0.73919990  0.51482620  0.66811646     0.13000
H726        H  0.88548580  0.55807946  0.74176216     0.09500
H727        H  0.89895198  0.48309433  0.63390526     0.10600
H728        H  0.94846317  0.41219722  0.77676332     0.16400
C729        C  0.38109540  0.52932573  0.85767353    -0.01800
C730        C  0.36747367  0.51454107  0.81539849     0.06800
C731        C  0.35004586  0.54678582  0.78465849    -0.07800
C732        C  0.35304348  0.59356568  0.79396312     0.04200
C733        C  0.38240771  0.60698731  0.82894638    -0.15000
C734        C  0.38384341  0.57667568  0.86573164    -0.08300
C735        C  0.37365350  0.46684295  0.80132720     0.05200
C736        C  0.34487364  0.43200100  0.81633145    -0.09500
C737        C  0.33663803  0.39324954  0.79009366     0.00100
C738        C  0.35207098  0.39479991  0.74691722     0.00000
C739        C  0.39284021  0.41812584  0.74125734    -0.13000
C740        C  0.40192092  0.45720344  0.76657568     0.00500
C741        C  0.29982645  0.36277069  0.80035303     0.39800
C742        C  0.43609948  0.48924324  0.75304289     0.36400
C743        C  0.39953632  0.49684034  0.88932930     0.36100
C744        C  0.33642654  0.62673657  0.76199259     0.36900
N745        N  0.26992889  0.33862781  0.80811070    -0.43900
N746        N  0.46357188  0.51457283  0.74159694    -0.44300
N747        N  0.32320666  0.65363650  0.73658334    -0.41700
N748        N  0.41477386  0.46894320  0.91252671    -0.43100
H749        H  0.40015848  0.58794182  0.89638290     0.13000
H750        H  0.33712789  0.53582887  0.75262770     0.09500
H751        H  0.32490922  0.43757581  0.84468693     0.10600
H752        H  0.40981646  0.41422360  0.71075575     0.16400
C753        C  0.83011023  0.77280239  0.58516484    -0.01800
C754        C  0.79942725  0.77280345  0.61979984     0.06800
C755        C  0.77948296  0.73041554  0.63099312    -0.07800
C756        C  0.77953956  0.69463421  0.60038287     0.04200
C757        C  0.79120089  0.70654941  0.55707835    -0.15000
C758        C  0.82743344  0.73687173  0.55520681    -0.08300
C759        C  0.77381752  0.81538593  0.62675176     0.05200
C760        C  0.73063434  0.81767516  0.60594702    -0.09500
C761        C  0.71743292  0.85709860  0.58224122     0.00100
C762        C  0.74691136  0.89489768  0.58225753     0.00000
C763        C  0.78103614  0.89703826  0.61614084    -0.13000
C764        C  0.79634640  0.85668747  0.63678378     0.00500
C765        C  0.67740031  0.85607498  0.55379334     0.39800
C766        C  0.84017881  0.85619886  0.65914952     0.36400
C767        C  0.85770874  0.81198046  0.57423394     0.36100
C768        C  0.75423961  0.65308687  0.60849623     0.36900
N769        N  0.64523235  0.85591668  0.53099438    -0.43900
N770        N  0.87597401  0.85479103  0.67559177    -0.44300
N771        N  0.73392574  0.61972262  0.61478565    -0.41700
N772        N  0.87997324  0.84336449  0.56564262    -0.43100
H773        H  0.84425014  0.74027407  0.52516299     0.13000
H774        H  0.75869573  0.72758567  0.65929211     0.09500
H775        H  0.71095437  0.78680921  0.60209355     0.10600
H776        H  0.80196038  0.92753579  0.61895849     0.16400
C777        C  0.39929168  0.83450312  0.37919164    -0.01800
C778        C  0.42198329  0.86731509  0.35342683     0.06800
C779        C  0.43818209  0.90789218  0.37360646    -0.07800
C780        C  0.43888717  0.91233968  0.41955302     0.04200
C781        C  0.42216718  0.87611813  0.44549029    -0.15000
C782        C  0.39949407  0.83933672  0.42467638    -0.08300
C783        C  0.43773892  0.85457321  0.30938472     0.05200
C784        C  0.40690961  0.83758225  0.27691427    -0.09500
C785        C  0.42161038  0.81250973  0.24127384     0.00100
C786        C  0.46806717  0.80539348  0.23706090     0.00000
C787        C  0.49878123  0.82699871  0.26678356    -0.13000
C788        C  0.48427000  0.85097419  0.30272677     0.00500
C789        C  0.38840695  0.79432314  0.20992031     0.39800
C790        C  0.51826233  0.86815861  0.33397420     0.36400
C791        C  0.37952610  0.79306806  0.36082350     0.36100
C792        C  0.46036621  0.95220079  0.43923059     0.36900
N793        N  0.36174748  0.77973749  0.18479450    -0.43900
N794        N  0.54561850  0.88200913  0.35879379    -0.44300
N795        N  0.47748471  0.98427770  0.45492414    -0.41700
N796        N  0.36340466  0.75991459  0.34631497    -0.43100
H797        H  0.38461579  0.81236044  0.44439814     0.13000
H798        H  0.45423710  0.93408213  0.35389992     0.09500
H799        H  0.37113965  0.84146079  0.28090968     0.10600
H800        H  0.53465737  0.82296269  0.26354110     0.16400
C801        C  0.60271640  0.71762886  0.83886106    -0.01800
C802        C  0.63299077  0.75156792  0.85608393     0.06800
C803        C  0.66708946  0.73778080  0.88660280    -0.07800
C804        C  0.66313315  0.69452033  0.90705335     0.04200
C805        C  0.62159933  0.67117302  0.90217499    -0.15000
C806        C  0.59894264  0.67576184  0.86129948    -0.08300
C807        C  0.61996116  0.80037218  0.85297505     0.05200
C808        C  0.57814454  0.81187360  0.86917639    -0.09500
C809        C  0.55601015  0.85126763  0.85422994     0.00100
C810        C  0.57483823  0.87757564  0.82039520     0.00000
C811        C  0.62144920  0.87331798  0.81446056    -0.13000
C812        C  0.64383407  0.83360379  0.82929561     0.00500
C813        C  0.51002872  0.85725000  0.86611869     0.39800
C814        C  0.68879132  0.82525977  0.81571224     0.36400
C815        C  0.57058904  0.72746626  0.80326250     0.36100
C816        C  0.69512768  0.67989480  0.94105608     0.36900
N817        N  0.47307279  0.86166230  0.87545147    -0.43900
N818        N  0.72495197  0.81856795  0.80508682    -0.44300
N819        N  0.72035824  0.66676185  0.96818052    -0.41700
N820        N  0.54439622  0.73471020  0.77493989    -0.43100
H821        H  0.57045025  0.65346718  0.85335786     0.13000
H822        H  0.69305929  0.76186685  0.89761316     0.09500
H823        H  0.56043273  0.78743350  0.88944031     0.10600
H824        H  0.63740908  0.89526729  0.79056389     0.16400
C825        C  0.82441123  0.09528638  0.01850070    -0.01800
C826        C  0.82379885  0.12077436  0.97886710     0.06800
C827        C  0.83483060  0.09994125  0.93966212    -0.07800
C828        C  0.84134507  0.05277397  0.93866897     0.04200
C829        C  0.83563135  0.02652258  0.97721421    -0.15000
C830        C  0.82985821  0.04810378  0.01729207    -0.08300
C831        C  0.80496541  0.16689631  0.97720221     0.05200
C832        C  0.82970344  0.20246900  0.99717394    -0.09500
C833        C  0.80968002  0.24433128  0.00424039     0.00100
C834        C  0.76391265  0.25090093  0.99107270     0.00000
C835        C  0.74018294  0.21616589  0.96816885    -0.13000
C836        C  0.76028311  0.17405098  0.96142049     0.00500
C837        C  0.83709834  0.27965774  0.02521450     0.39800
C838        C  0.73369048  0.13780013  0.94071799     0.36400
C839        C  0.81537172  0.11608264  0.05997879     0.36100
C840        C  0.84886730  0.03152014  0.89703807     0.36900
N841        N  0.85904302  0.30782559  0.04229529    -0.43900
N842        N  0.71250597  0.10864071  0.92423906    -0.44300
N843        N  0.85510498  0.01423276  0.86387743    -0.41700
N844        N  0.80839724  0.13281305  0.09322724    -0.43100
H845        H  0.82589283  0.02766561  0.04692698     0.13000
H846        H  0.83510650  0.11994509  0.90942731     0.09500
H847        H  0.86416614  0.19679176  0.00889030     0.10600
H848        H  0.70536074  0.22116397  0.95737496     0.16400
C849        C  0.23787921  0.89807481  0.87563049    -0.01800
C850        C  0.19663220  0.91225515  0.85532119     0.06800
C851        C  0.17003066  0.94231989  0.87869118    -0.07800
C852        C  0.18995681  0.96769742  0.91346144     0.04200
C853        C  0.23695859  0.96602607  0.91962529    -0.15000
C854        C  0.25581675  0.92311184  0.91175866    -0.08300
C855        C  0.18502219  0.90433462  0.80787215     0.05200
C856        C  0.17842160  0.85968517  0.79218317    -0.09500
C857        C  0.15728008  0.85232876  0.75077589     0.00100
C858        C  0.14152976  0.89023750  0.72566559     0.00000
C859        C  0.15942349  0.93347441  0.73577310    -0.13000
C860        C  0.17773532  0.94155114  0.77807549     0.00500
C861        C  0.14318719  0.80633951  0.73910677     0.39800
C862        C  0.18230783  0.98872906  0.79133632     0.36400
C863        C  0.26493318  0.86345981  0.85676609     0.36100
C864        C  0.16530872  0.00429049  0.93212486     0.36900
N865        N  0.13172252  0.76946085  0.73004222    -0.43900
N866        N  0.18408715  0.02684273  0.80131738    -0.44300
N867        N  0.14568234  0.03381305  0.94704256    -0.41700
N868        N  0.28661161  0.83553111  0.84183587    -0.43100
H869        H  0.29018547  0.91690422  0.92332533     0.13000
H870        H  0.13624347  0.95021797  0.86641483     0.09500
H871        H  0.18551092  0.83078591  0.81359479     0.10600
H872        H  0.14923401  0.96259380  0.71539682     0.16400
C873        C  0.06073042  0.76766765  0.17744121    -0.01800
C874        C  0.05399911  0.71991368  0.17320285     0.06800
C875        C  0.03703560  0.69453997  0.20832395    -0.07800
C876        C  0.02205012  0.71658717  0.24527357     0.04200
C877        C  0.02546260  0.76470281  0.24802299    -0.15000
C878        C  0.04690148  0.78966182  0.21512065    -0.08300
C879        C  0.05394061  0.69793313  0.12962204     0.05200
C880        C  0.09433995  0.69079313  0.10874357    -0.09500
C881        C  0.09370607  0.67464618  0.06542302     0.00100
C882        C  0.05211754  0.66579091  0.04274403     0.00000
C883        C  0.01203869  0.67094204  0.06458060    -0.13000
C884        C  0.01261172  0.68679453  0.10756924     0.00500
C885        C  0.13573453  0.67001221  0.04412536     0.39800
C886        C  0.97023010  0.69416956  0.12761707     0.36400
C887        C  0.07766374  0.79523844  0.14192089     0.36100
C888        C  0.00084222  0.68939229  0.27868881     0.36900
N889        N  0.16939951  0.66593318  0.02706396    -0.43900
N890        N  0.93680547  0.70022658  0.14452598    -0.44300
N891        N  0.98350728  0.66767121  0.30528047    -0.41700
N892        N  0.09115507  0.81738543  0.11346102    -0.43100
H893        H  0.04947090  0.82668740  0.21716410     0.13000
H894        H  0.03177898  0.65786605  0.20506895     0.09500
H895        H  0.12612526  0.69928373  0.12572465     0.10600
H896        H  0.97997726  0.66476961  0.04710978     0.16400
C897        C  0.27686066  0.68975889  0.56254122    -0.01800
C898        C  0.28388046  0.68071466  0.51792313     0.06800
C899        C  0.28439322  0.71704172  0.48754226    -0.07800
C900        C  0.27362389  0.76126382  0.50019126     0.04200
C901        C  0.26124589  0.76922404  0.54381592    -0.15000
C902        C  0.26557654  0.73387417  0.57517473    -0.08300
C903        C  0.28227576  0.63324713  0.50136246     0.05200
C904        C  0.24222517  0.60829840  0.50572566    -0.09500
C905        C  0.23780974  0.56318890  0.49153704     0.00100
C906        C  0.27448673  0.54171031  0.47200838     0.00000
C907        C  0.31415474  0.56780670  0.46610271    -0.13000
C908        C  0.31823059  0.61319569  0.48051080     0.00500
C909        C  0.19513769  0.54057083  0.49856702     0.39800
C910        C  0.35995933  0.63798758  0.47481088     0.36400
C911        C  0.27909142  0.65371628  0.59541857     0.36100
C912        C  0.27514019  0.79761417  0.46764149     0.36900
N913        N  0.16078672  0.52298556  0.50459321    -0.43900
N914        N  0.39342543  0.65783424  0.47021496    -0.44300
N915        N  0.27660835  0.82663276  0.44150111    -0.41700
N916        N  0.28099362  0.62471975  0.62163622    -0.43100
H917        H  0.25753097  0.73999333  0.60899243     0.13000
H918        H  0.29064327  0.71036946  0.45338006     0.09500
H919        H  0.21409786  0.62430856  0.52074491     0.10600
H920        H  0.34255984  0.55261339  0.45095821     0.16400
C921        C  0.28142870  0.99110456  0.40538210    -0.01800
C922        C  0.32463188  0.98069395  0.42368066     0.06800
C923        C  0.32693380  0.94505035  0.45413445    -0.07800
C924        C  0.29059424  0.93737095  0.48074335     0.04200
C925        C  0.25065566  0.96272025  0.47286356    -0.15000
C926        C  0.24417467  0.98330864  0.43125715    -0.08300
C927        C  0.35388030  0.02078102  0.43522793     0.05200
C928        C  0.34895573  0.03999588  0.47721174    -0.09500
C929        C  0.34439448  0.08730233  0.48120518     0.00100
C930        C  0.34426583  0.11449520  0.44297719     0.00000
C931        C  0.36298290  0.09632267  0.40506383    -0.13000
C932        C  0.36915917  0.04930442  0.40173294     0.00500
C933        C  0.33903982  0.10737067  0.52368347     0.39800
C934        C  0.38422928  0.03028731  0.36156480     0.36400
C935        C  0.27633378  0.01978878  0.36667322     0.36100
C936        C  0.29978408  0.90969180  0.51907714     0.36900
N937        N  0.33567465  0.12543814  0.55699107    -0.43900
N938        N  0.39655277  0.01447625  0.32968621    -0.44300
N939        N  0.31228266  0.88617308  0.54763723    -0.41700
N940        N  0.27332912  0.04307287  0.33571993    -0.43100
H941        H  0.21304701  0.00063114  0.42278799     0.13000
H942        H  0.35966227  0.93365683  0.46577562     0.09500
H943        H  0.34226702  0.01825269  0.50532516     0.10600
H944        H  0.36866468  0.11765770  0.37642201     0.16400
C945        C  0.05035286  0.67974986  0.58049699    -0.01800
C946        C  0.03153412  0.64107020  0.55842575     0.06800
C947        C  0.02686851  0.64230424  0.51256139    -0.07800
C948        C  0.03004273  0.68433090  0.49040434     0.04200
C949        C  0.03401331  0.72495405  0.51532539    -0.15000
C950        C  0.05136948  0.72203375  0.55856752    -0.08300
C951        C  0.00012731  0.61138637  0.58242030     0.05200
C952        C  0.95756289  0.62961117  0.58938672    -0.09500
C953        C  0.93618297  0.61950295  0.62840728     0.00100
C954        C  0.95898093  0.59241067  0.66049438     0.00000
C955        C  0.99131976  0.56191876  0.64558653    -0.13000
C956        C  0.01489284  0.57393922  0.60817284     0.00500
C957        C  0.89697216  0.64492567  0.63869176     0.39800
C958        C  0.05706546  0.55232156  0.60054948     0.36400
C959        C  0.06055674  0.67899099  0.62722433     0.36100
C960        C  0.01879731  0.68605855  0.44375060     0.36900
N961        N  0.86605499  0.66555498  0.64809490    -0.43900
N962        N  0.09100478  0.53516443  0.59451681    -0.44300
N963        N  0.00946361  0.68762053  0.40646416    -0.41700
N964        N  0.06932270  0.67940202  0.66459603    -0.43100
H965        H  0.05728949  0.75302927  0.57739767     0.13000
H966        H  0.01431968  0.61229179  0.49500927     0.09500
H967        H  0.94461694  0.65679265  0.56799769     0.10600
H968        H  0.00602083  0.53691139  0.66837359     0.16400
C969        C  0.88013761  0.12793325  0.25681384    -0.01800
C970        C  0.84910133  0.14321748  0.28681203     0.06800
C971        C  0.81720457  0.17433840  0.27030705    -0.07800
C972        C  0.82995052  0.20510797  0.23737573     0.04200
C973        C  0.87444232  0.20230992  0.22224008    -0.15000
C974        C  0.89568763  0.15978773  0.22616049    -0.08300
C975        C  0.87046986  0.15565933  0.33003935     0.05200
C976        C  0.89272830  0.19874557  0.33404372    -0.09500
C977        C  0.92647114  0.20675601  0.36667077     0.00100
C978        C  0.93696454  0.17189545  0.39744860     0.00000
C979        C  0.91028180  0.13103530  0.39624707    -0.13000
C980        C  0.87804808  0.12253355  0.36274566     0.00500
C981        C  0.95166331  0.24934379  0.36528443     0.39800
C982        C  0.85526412  0.07848860  0.36105681     0.36400
C983        C  0.90384705  0.08576799  0.26454927     0.36100
C984        C  0.80072041  0.24306497  0.22676956     0.36900
N985        N  0.97184035  0.28348332  0.36368846    -0.43900
N986        N  0.83715780  0.04314098  0.35972001    -0.44300
N987        N  0.77716681  0.27344431  0.21858702    -0.41700
N988        N  0.92213663  0.05143997  0.27043305    -0.43100
H989        H  0.92734013  0.15428177  0.21082385     0.13000
H990        H  0.78847777  0.18196201  0.28953217     0.09500
H991        H  0.88649815  0.22518455  0.30950233     0.10600
H992        H  0.91610948  0.10372612  0.42004577     0.16400
C993        C  0.00262772  0.32354938  0.89670029    -0.01800
C994        C  0.00445013  0.28012325  0.87771903     0.06800
C995        C  0.99385207  0.24086297  0.90226422    -0.07800
C996        C  0.98301720  0.24418655  0.94623992     0.04200
C997        C  0.98294028  0.28757671  0.96613904    -0.15000
C998        C  0.99183004  0.32703883  0.94069948    -0.08300
C999        C  0.01899588  0.27399748  0.83275616     0.05200
C1000       C  0.06396267  0.26291806  0.82696694    -0.09500
C1001       C  0.07728863  0.24683068  0.78658964     0.00100
C1002       C  0.04484651  0.24135207  0.75175038     0.00000
C1003       C  0.00074945  0.25633245  0.75669468    -0.13000
C1004       C  0.98763664  0.27270154  0.79692025     0.00500
C1005       C  0.12322629  0.23250299  0.78320490     0.39800
C1006       C  0.94138669  0.28542500  0.80141794     0.36400
C1007       C  0.01277982  0.36460308  0.87192557     0.36100
C1008       C  0.97171988  0.20270549  0.96986759     0.36900
N1009       N  0.16008450  0.22111062  0.78061372    -0.43900
N1010       N  0.90432228  0.29570192  0.80489130    -0.44300
N1011       N  0.96265563  0.16944222  0.98875195    -0.41700
N1012       N  0.02085310  0.39744397  0.85196554    -0.43100
H1013       H  0.99208575  0.36060196  0.95558891     0.13000
H1014       H  0.99473012  0.20747311  0.88708808     0.09500
H1015       H  0.08801448  0.26431655  0.85478113     0.10600
H1016       H  0.97593074  0.25314795  0.72966443     0.16400
C1017       C  0.28617943  0.03032910  0.18754228    -0.01800
C1018       C  0.29941427  0.98581462  0.20028186     0.06800
C1019       C  0.26888847  0.95692248  0.22133180    -0.07800
C1020       C  0.22893064  0.97441796  0.23639312     0.04200
C1021       C  0.22084853  0.02202677  0.23217987    -0.15000
C1022       C  0.24712568  0.04809541  0.20361991    -0.08300
C1023       C  0.34756040  0.97394932  0.20168363     0.05200
C1024       C  0.37761109  0.00416238  0.22382854    -0.09500
C1025       C  0.42368364  0.99735806  0.22447454     0.00100
C1026       C  0.44039196  0.95814905  0.20461731     0.00000
C1027       C  0.41049120  0.92679910  0.18386309    -0.13000
C1028       C  0.36411400  0.93438477  0.18234648     0.00500
C1029       C  0.45295504  0.03296432  0.24280461     0.39800
C1030       C  0.33461342  0.90197454  0.15981319     0.36400
C1031       C  0.31557657  0.06057074  0.16371506     0.36100
C1032       C  0.19870895  0.94333632  0.25821876     0.36900
N1033       N  0.47613910  0.06178639  0.25718895    -0.43900
N1034       N  0.31123170  0.87566453  0.14174778    -0.44300
N1035       N  0.17435606  0.91831902  0.27538841    -0.41700
N1036       N  0.34001630  0.08471292  0.14564896    -0.43100
H1037       H  0.24045094  0.08401260  0.19791060     0.13000
H1038       H  0.27807257  0.92201501  0.22971562     0.09500
H1039       H  0.36498729  0.03419955  0.23962417     0.10600
H1040       H  0.42345381  0.89669726  0.16849097     0.16400
C1041       C  0.17622216  0.92598084  0.03559917    -0.01800
C1042       C  0.21368026  0.89786622  0.03091946     0.06800
C1043       C  0.25696337  0.91650106  0.03824947    -0.07800
C1044       C  0.26365839  0.96240200  0.04985172     0.04200
C1045       C  0.22628927  0.99127228  0.05437615    -0.15000
C1046       C  0.18267576  0.97218120  0.04757768    -0.08300
C1047       C  0.20984791  0.84884755  0.01814578     0.05200
C1048       C  0.20200603  0.83761091  0.97380565    -0.09500
C1049       C  0.21082776  0.79346133  0.95877043     0.00100
C1050       C  0.22959276  0.76016435  0.98821802     0.00000
C1051       C  0.23198292  0.77027914  0.03343047    -0.13000
C1052       C  0.22145859  0.81381232  0.04846618     0.00500
C1053       C  0.20102079  0.78368787  0.91303927     0.39800
C1054       C  0.22231525  0.82182658  0.09517695     0.36400
C1055       C  0.13112515  0.90781838  0.02871368     0.36100
C1056       C  0.30946248  0.97806612  0.05833202     0.36900
N1057       N  0.19282566  0.77446695  0.87669292    -0.43900
N1058       N  0.22185220  0.82785306  0.13265577    -0.44300
N1059       N  0.34624724  0.99040800  0.06505353    -0.41700
N1060       N  0.09510582  0.89286441  0.02312726    -0.43100
H1061       H  0.15355827  0.99349275  0.05096659     0.13000
H1062       H  0.28587845  0.89483408  0.03486970     0.09500
H1063       H  0.19066743  0.86386728  0.95066281     0.10600
H1064       H  0.24320232  0.74452574  0.05721126     0.16400
C1065       C  0.07158481  0.40501257  0.06358816    -0.01800
C1066       C  0.09862137  0.44139277  0.04873633     0.06800
C1067       C  0.11314813  0.43958267  0.00512940    -0.07800
C1068       C  0.11583145  0.39696418  0.98478608     0.04200
C1069       C  0.10379465  0.35783650  0.00895433    -0.15000
C1070       C  0.07072939  0.36395563  0.04011700    -0.08300
C1071       C  0.12927907  0.46621239  0.08047350     0.05200
C1072       C  0.16314596  0.43862833  0.10012861    -0.09500
C1073       C  0.20803769  0.44759242  0.09046349     0.00100
C1074       C  0.21786226  0.48626884  0.06444873     0.00000
C1075       C  0.18581425  0.52126500  0.06033190    -0.13000
C1076       C  0.14104036  0.51140508  0.06974772     0.00500
C1077       C  0.24107074  0.41271422  0.09961012     0.39800
C1078       C  0.10600237  0.54289804  0.05739928     0.36400
C1079       C  0.05461935  0.40536602  0.10726775     0.36100
C1080       C  0.13907436  0.39325544  0.94444784     0.36900
N1081       N  0.26749838  0.38468099  0.10691749    -0.43900
N1082       N  0.07617644  0.56642633  0.04808628    -0.44300
N1083       N  0.15741786  0.39017883  0.91189529    -0.41700
N1084       N  0.04200377  0.40560329  0.14267579    -0.43100
H1085       H  0.05702856  0.33388337  0.05595743     0.13000
H1086       H  0.13049358  0.46871443  0.99090272     0.09500
H1087       H  0.15434919  0.40511963  0.11311748     0.10600
H1088       H  0.19368753  0.55261223  0.04261839     0.16400
C1089       C  0.92197416  0.99358268  0.15238667    -0.01800
C1090       C  0.93696261  0.95110334  0.13717847     0.06800
C1091       C  0.90538679  0.92280424  0.11549364    -0.07800
C1092       C  0.85975523  0.92851362  0.12236471     0.04200
C1093       C  0.84654007  0.96202847  0.15311859    -0.15000
C1094       C  0.87712061  0.99746457  0.16367070    -0.08300
C1095       C  0.96967368  0.92743278  0.16705329     0.05200
C1096       C  0.95171270  0.91182363  0.20663029    -0.09500
C1097       C  0.97225590  0.92551109  0.24651518     0.00100
C1098       C  0.01398851  0.94906550  0.24580739     0.00000
C1099       C  0.03847947  0.94743983  0.20718871    -0.13000
C1100       C  0.01549877  0.93909454  0.16695319     0.00500
C1101       C  0.94471325  0.92572257  0.28440884     0.39800
C1102       C  0.03677568  0.95023964  0.12646389     0.36400
C1103       C  0.95326330  0.03015129  0.16334444     0.36100
C1104       C  0.82862190  0.89737683  0.09969339     0.36900
N1105       N  0.92198663  0.92672974  0.31426623    -0.43900
N1106       N  0.05386126  0.95918945  0.09398059    -0.44300
N1107       N  0.80397974  0.87239531  0.08129017    -0.41700
N1108       N  0.97777079  0.06035126  0.17114545    -0.43100
H1109       H  0.86700484  0.02632017  0.18280939     0.13000
H1110       H  0.91641078  0.89215022  0.09958114     0.09500
H1111       H  0.91690309  0.90008057  0.20645009     0.10600
H1112       H  0.07199761  0.96261072  0.20696823     0.16400
C1113       C  0.60407885  0.05787827  0.79211503    -0.01800
C1114       C  0.63678663  0.08268000  0.81737791     0.06800
C1115       C  0.62536829  0.12439017  0.83615496    -0.07800
C1116       C  0.58121014  0.14058174  0.83130095     0.04200
C1117       C  0.54828801  0.11470834  0.80721110    -0.15000
C1118       C  0.56042850  0.07369580  0.78773207    -0.08300
C1119       C  0.68377385  0.06724465  0.81892368     0.05200
C1120       C  0.71359762  0.09048038  0.79205417    -0.09500
C1121       C  0.74998143  0.06780401  0.77530760     0.00100
C1122       C  0.75616558  0.02055056  0.78515161     0.00000
C1123       C  0.73058303  0.00019304  0.81819299    -0.13000
C1124       C  0.69478591  0.02342046  0.83545274     0.00500
C1125       C  0.77831701  0.09369758  0.74641693     0.39800
C1126       C  0.66669248  0.99987731  0.86627006     0.36400
C1127       C  0.61479879  0.01693308  0.76866570     0.36100
C1128       C  0.57100003  0.18450093  0.84939176     0.36900
N1129       N  0.80085834  0.11477518  0.72336248    -0.43900
N1130       N  0.64413507  0.98099681  0.89089132    -0.44300
N1131       N  0.56271396  0.21983902  0.86355433    -0.41700
N1132       N  0.62341950  0.98429112  0.74976778    -0.43100
H1133       H  0.53556384  0.05337860  0.76912537     0.13000
H1134       H  0.65099648  0.14444335  0.85396752     0.09500
H1135       H  0.70583909  0.12487040  0.78050132     0.10600
H1136       H  0.73619935  0.96498066  0.82837253     0.16400
C1137       C  0.49745999  0.21890924  0.69210333    -0.01800
C1138       C  0.46151279  0.19241905  0.67347402     0.06800
C1139       C  0.41903106  0.19482833  0.69141355    -0.07800
C1140       C  0.41110339  0.22482058  0.72550702     0.04200
C1141       C  0.44664930  0.25300049  0.74288060    -0.15000
C1142       C  0.48986459  0.24815165  0.72677996    -0.08300
C1143       C  0.46430337  0.17256576  0.62918945     0.05200
C1144       C  0.43548284  0.19075703  0.59607140    -0.09500
C1145       C  0.44484566  0.18629313  0.55211294     0.00100
C1146       C  0.48451021  0.16403790  0.54076498     0.00000
C1147       C  0.50932005  0.13959721  0.57333869    -0.13000
C1148       C  0.49896038  0.14316493  0.61762370     0.00500
C1149       C  0.41469229  0.20785627  0.51986656     0.39800
C1150       C  0.52554076  0.11847050  0.65059121     0.36400
C1151       C  0.54147015  0.22048517  0.67381142     0.36100
C1152       C  0.36552776  0.22737879  0.73966659     0.36900
N1153       N  0.39070665  0.22567543  0.49431499    -0.43900
N1154       N  0.54695855  0.09862912  0.67689496    -0.44300
N1155       N  0.32888520  0.22915779  0.75073669    -0.41700
N1156       N  0.57680806  0.22191906  0.65936434    -0.43100
H1157       H  0.51786366  0.26857119  0.74015469     0.13000
H1158       H  0.39112923  0.17520498  0.67666576     0.09500
H1159       H  0.40765740  0.21205130  0.60454459     0.10600
H1160       H  0.53864853  0.12062507  0.56475491     0.16400
C1161       C  0.60341883  0.42252515  0.12474088    -0.01800
C1162       C  0.60763432  0.38794016  0.15657562     0.06800
C1163       C  0.56813965  0.37082440  0.17567613    -0.11800
C1164       C  0.52641277  0.37507644  0.15304043     0.04200
C1165       C  0.52394756  0.40076624  0.11378686    -0.15000
C1166       C  0.56162142  0.42869120  0.10321930    -0.08300
C1167       C  0.64367454  0.35418192  0.15231565     0.05200
C1168       C  0.66423148  0.33946996  0.19210583    -0.09500
C1169       C  0.65290774  0.29587530  0.20793312     0.00100
C1170       C  0.62275065  0.26836384  0.18221605     0.00000
C1171       C  0.61642618  0.27786897  0.13739987    -0.13000
C1172       C  0.63165133  0.31995848  0.12116330     0.00500
C1173       C  0.66734049  0.28229327  0.25197482     0.39800
C1174       C  0.61988377  0.33178699  0.07601817     0.36400
C1175       C  0.64271142  0.44577084  0.10865632     0.36100
C1176       C  0.48768019  0.35073673  0.16886001     0.36900
N1177       N  0.67901266  0.26994554  0.28681126    -0.43900
N1178       N  0.60983242  0.34114875  0.03992521    -0.44300
N1179       N  0.45637868  0.33141185  0.18129601    -0.41700
N1180       N  0.67425779  0.46446359  0.09596218    -0.43100
H1181       H  0.56021121  0.45178876  0.07509984     0.13000
H1182       H  0.57083473  0.34713739  0.20325567     0.09500
H1183       H  0.68032736  0.36421399  0.21409850     0.10600
H1184       H  0.59600176  0.25512754  0.11655742     0.16400
C1185       C  0.09486323  0.55598216  0.33733431    -0.01800
C1186       C  0.10743184  0.51096113  0.32796087     0.06800
C1187       C  0.07732783  0.47460965  0.33518538    -0.07800
C1188       C  0.03264862  0.48331528  0.34400038     0.04200
C1189       C  0.01800704  0.52893050  0.34531428    -0.15000
C1190       C  0.05007821  0.56467405  0.34631511    -0.08300
C1191       C  0.14736057  0.50212452  0.30240188     0.05200
C1192       C  0.19039336  0.50598402  0.32257574    -0.09500
C1193       C  0.22837317  0.49709396  0.29880427     0.00100
C1194       C  0.22328632  0.48439934  0.25423566     0.00000
C1195       C  0.18042534  0.48154854  0.23373740    -0.13000
C1196       C  0.14241932  0.49038059  0.25744950     0.00500
C1197       C  0.27227503  0.50071865  0.32079169     0.39800
C1198       C  0.09866033  0.48712933  0.23504766     0.36400
C1199       C  0.12582857  0.59409602  0.33270921     0.36100
C1200       C  0.00163923  0.44505926  0.34708146     0.36900
N1201       N  0.30752096  0.50378154  0.33822690    -0.43900
N1202       N  0.06355954  0.48451996  0.21723317    -0.44300
N1203       N  0.97769573  0.41367660  0.34998076    -0.41700
N1204       N  0.15083046  0.62451968  0.32911970    -0.43100
H1205       H  0.03914043  0.59983807  0.34788989     0.13000
H1206       H  0.08755660  0.43975023  0.32954165     0.09500
H1207       H  0.19419968  0.51534452  0.35693800     0.10600
H1208       H  0.17662759  0.47129907  0.19960740     0.16400
C1209       C  0.83609135  0.74440626  0.11989253    -0.01800
C1210       C  0.82074439  0.69862245  0.12146909     0.06800
C1211       C  0.84084710  0.66678823  0.09439329    -0.07800
C1212       C  0.86496351  0.68205485  0.05841950     0.04200
C1213       C  0.86521120  0.72910244  0.04856851    -0.15000
C1214       C  0.86193262  0.75877801  0.08453395    -0.08300
C1215       C  0.77490666  0.68623586  0.13580666     0.05200
C1216       C  0.73877153  0.70276906  0.10976064    -0.09500
C1217       C  0.70181204  0.67419901  0.09827163     0.00100
C1218       C  0.70254407  0.62851400  0.11277675     0.00000
C1219       C  0.72831307  0.62013286  0.15226845    -0.13000
C1220       C  0.76767817  0.64681967  0.16098749     0.00500
C1221       C  0.66960269  0.68851305  0.06444293     0.39800
C1222       C  0.80381423  0.63151183  0.19022125     0.36400
C1223       C  0.82133205  0.77745975  0.15076516     0.36100
C1224       C  0.87824895  0.64937407  0.02647783     0.36900
N1225       N  0.64340889  0.69988917  0.03750287    -0.43900
N1226       N  0.83419767  0.62184205  0.21327215    -0.44300
N1227       N  0.88903598  0.62307195  0.00098048    -0.41700
N1228       N  0.80968233  0.80381839  0.17580142    -0.43100
H1229       H  0.86777988  0.79517166  0.07957550     0.13000
H1230       H  0.83182085  0.63100348  0.09704234     0.09500
H1231       H  0.74365284  0.73444461  0.09315107     0.10600
H1232       H  0.72477723  0.58720771  0.16824742     0.16400
loop_ 
_geom_bond_atom_site_label_1 
_geom_bond_atom_site_label_2 
_geom_bond_distance 
_geom_bond_site_symmetry_2 
_ccdc_geom_bond_type 
O1           C17   1.288       .  A
O1           Zn7   2.091       .  S
C2           O18   1.288       .  A
C2           O15   1.288       .  A
C2          C319   1.520       .  S
O3           C16   1.281       .  A
O3          Cd10   2.139       .  S
O4           C22   1.260       .  A
O4          Cd13   2.040       .  S
O5           C19   1.274       .  A
O5           Cd9   2.056       .  S
O6           C17   1.276       .  A
O6           Cd9   2.069       .  S
Zn7          O18   2.099       .  S
Zn7          O20   1.934       .  S
Zn7          O12   1.925       .  S
O8           C19   1.287       .  A
O8          Cd13   2.121       .  S
Cd9          O11   1.977       .  S
Cd9          O12   1.978       .  S
Cd10         O14   2.133       .  S
Cd10         O23   2.095       .  S
Cd10         O12   1.988       .  S
O11          C21   1.258       .  A
O12         Cd13   2.004       .  S
Cd13         O15   2.132       .  S
O14          C21   1.286       .  A
C16          O20   1.258       .  A
C16         C315   1.470       .  S
C17         C309   1.494       .  S
C19         C295   1.489       .  S
C21         C289   1.462       .  S
C22          O23   1.283       .  A
C22         C303   1.472       .  S
O24          C40   1.280       .  A
O24         Zn30   2.023       .  S
C25          O41   1.279       .  A
C25          O38   1.279       .  A
C25         C271   1.499       .  S
O26          C39   1.286       .  A
O26         Cd33   2.167       .  S
O27          C45   1.260       .  A
O27         Cd36   2.004       .  S
O28          C42   1.275       .  A
O28         Cd32   2.049       .  S
O29          C40   1.276       .  A
O29         Cd32   2.095       .  S
Zn30         O41   2.048       .  S
Zn30         O43   1.942       .  S
Zn30         O35   1.941       .  S
O31          C42   1.274       .  A
O31         Cd36   2.087       .  S
Cd32         O34   2.036       .  S
Cd32         O35   2.035       .  S
Cd33         O37   2.196       .  S
Cd33         O46   2.139       .  S
Cd33         O35   2.000       .  S
O34          C44   1.267       .  A
O35         Cd36   2.050       .  S
Cd36         O38   2.106       .  S
O37          C44   1.297       .  A
C39          O43   1.262       .  A
C39          C80   1.482       .  S
C40         C327   1.486       .  S
C42         C301   1.495       .  S
C44         C321   1.492       .  S
C45          O46   1.290       .  A
C45         C253   1.470       .  S
O47          C63   1.273       .  A
O47         Zn53   2.032       .  S
C48          O64   1.281       .  A
C48          O61   1.273       .  A
C48          C74   1.484       .  S
O49          C62   1.284       .  A
O49         Cd56   2.119       .  S
O50          C68   1.265       .  A
O50         Cd59   2.006       .  S
O51          C65   1.280       .  A
O51         Cd55   2.102       .  S
O52          C63   1.279       .  A
O52         Cd55   2.076       .  S
Zn53         O64   2.020       .  S
Zn53         O66   2.001       .  S
Zn53         O58   1.898       .  S
O54          C65   1.283       .  A
O54         Cd59   2.100       .  S
Cd55         O57   2.002       .  S
Cd55         O58   1.991       .  S
Cd56         O60   2.093       .  S
Cd56         O69   2.143       .  S
Cd56         O58   1.979       .  S
O57          C67   1.258       .  A
O58         Cd59   1.982       .  S
Cd59         O61   2.089       .  S
O60          C67   1.281       .  A
C62          O66   1.270       .  A
C62         C325   1.490       .  S
C63          C78   1.486       .  S
C65         C172   1.492       .  S
C67         C180   1.457       .  S
C68          O69   1.285       .  A
C68         C283   1.466       .  S
C70        C1218   1.488       .  S
C70          N71   1.373       .  A
C70          N75   1.348       .  A
N71          C72   1.376       .  A
C72         C103   1.506   1_554  S
C72          N73   1.379       .  A
N73          C74   1.365       .  A
C74          N75   1.338       .  A
C76        C1189   1.466   1_655  S
C76          N77   1.359       .  A
C76          N81   1.364       .  A
N77          C78   1.350       .  A
C78          N79   1.362       .  A
N79          C80   1.369       .  A
C80          N81   1.361       .  A
O82          C98   1.274       .  A
O82         Zn88   2.024       .  S
C83          O99   1.275       .  A
C83          O96   1.280       .  A
C83         C285   1.469       .  S
O84          C97   1.285       .  A
O84         Cd91   2.140       .  S
O85         C103   1.271       .  A
O85         Cd94   2.057       .  S
O86         C100   1.279       .  A
O86         Cd90   2.075       .  S
O87          C98   1.281       .  A
O87         Cd90   2.130       .  S
Zn88         O99   2.019       .  S
Zn88        O101   1.917       .  S
Zn88         O93   1.918       .  S
O89         C100   1.280       .  A
O89         Cd94   2.093       .  S
Cd90         O92   1.990       .  S
Cd90         O93   1.985       .  S
Cd91         O95   2.141       .  S
Cd91        O104   2.184       .  S
Cd91         O93   2.029       .  S
O92         C102   1.263       .  A
O93         Cd94   1.979       .  S
Cd94         O96   2.086       .  S
O95         C102   1.287       .  A
C97         O101   1.260       .  A
C97         C132   1.463   1_556  S
C98         C138   1.489       .  S
C100        C313   1.477       .  S
C102        C307   1.464       .  S
C103        O104   1.289       .  A
O105        C121   1.282   1_556  A
O105       Zn111   2.039       .  S
C106        O122   1.288       .  A
C106        O119   1.290       .  A
C106        C144   1.500       .  S
O107        C120   1.285       .  A
O107       Cd114   2.175       .  S
O108        C126   1.253       .  A
O108       Cd117   2.012       .  S
O109        C123   1.280       .  A
O109       Cd113   2.101       .  S
O110        C121   1.283       .  A
O110       Cd113   2.134       .  S
Zn111       O122   2.079       .  S
Zn111       O124   1.966       .  S
Zn111       O116   1.894       .  S
O112        C123   1.286       .  A
O112       Cd117   2.099   1_554  S
Cd113       O115   1.995       .  S
Cd113       O116   1.950   1_554  S
Cd114       O118   2.218       .  S
Cd114       O127   2.222       .  S
Cd114       O116   2.042       .  S
O115        C125   1.268   1_554  A
O116       Cd117   1.956       .  S
Cd117       O119   2.148       .  S
O118        C125   1.301       .  A
C120        O124   1.253       .  A
C120        C136   1.486       .  S
C121        C130   1.498       .  S
C123        C162   1.504       .  S
C125        C154   1.492   1_556  S
C126        O127   1.283       .  A
C126        C277   1.503       .  S
C128       C1165   1.486       .  S
C128        N129   1.374       .  A
C128        N133   1.350       .  A
N129        C130   1.367       .  A
C130        N131   1.365   1_554  A
N131        C132   1.366   1_556  A
C132        N133   1.338       .  A
C134       C1141   1.484       .  S
C134        N135   1.358       .  A
C134        N139   1.363       .  A
N135        C136   1.352       .  A
C136        N137   1.372       .  A
N137        C138   1.370       .  A
C138        N139   1.353       .  A
C140       C1117   1.472       .  S
C140        N141   1.354       .  A
C140        N145   1.356       .  A
N141        C142   1.349       .  A
C142        C206   1.501       .  S
C142        N143   1.382       .  A
N143        C144   1.382       .  A
C144        N145   1.356       .  A
C146       C1098   1.475       .  S
C146        N147   1.362       .  A
C146        N151   1.354   1_565  A
N147        C148   1.363   1_565  A
C148        C244   1.486   1_455  S
C148        N149   1.363       .  A
N149        C150   1.369       .  A
C150        C202   1.467       .  S
C150        N151   1.342       .  A
C152       C1069   1.488       .  S
C152        N153   1.369   1_554  A
C152        N157   1.358       .  A
N153        C154   1.367   1_556  A
C154        N155   1.380       .  A
N155        C156   1.361       .  A
C156        C183   1.494       .  S
C156        N157   1.343       .  A
C158       C1045   1.498   1_545  S
C158        N159   1.369       .  A
C158        N163   1.367       .  A
N159        C160   1.362       .  A
C160        C203   1.492       .  S
C160        N161   1.370       .  A
N161        C162   1.366       .  A
C162        N163   1.359       .  A
C164       C1021   1.485       .  S
C164        N165   1.356       .  A
C164        N169   1.361       .  A
N165        C166   1.351       .  A
C166        C243   1.488       .  S
C166        N167   1.380       .  A
N167        C168   1.372       .  A
C168        C200   1.505       .  S
C168        N169   1.356       .  A
C170        C997   1.474   1_554  S
C170        N171   1.359       .  A
C170        N175   1.363       .  A
N171        C172   1.352       .  A
C172        N173   1.367       .  A
N173        C174   1.375       .  A
C174        C197   1.485   1_655  S
C174        N175   1.355       .  A
C176        C973   1.481       .  S
C176        N177   1.363       .  A
C176        N181   1.342       .  A
N177        C178   1.366       .  A
C178        C198   1.493   1_655  S
C178        N179   1.366       .  A
N179        C180   1.372       .  A
C180        N181   1.344       .  A
O182        C198   1.279       .  A
O182       Zn188   2.059       .  S
C183        O199   1.282       .  A
C183        O196   1.277       .  A
O184        C197   1.293       .  A
O184       Cd191   2.203       .  S
O185        C203   1.267       .  A
O185       Cd194   2.025       .  S
O186        C200   1.277       .  A
O186       Cd190   2.066       .  S
O187        C198   1.272       .  A
O187       Cd190   2.060       .  S
Zn188       O199   2.026       .  S
Zn188       O201   1.895       .  S
Zn188       O193   1.937       .  S
O189        C200   1.284       .  A
O189       Cd194   2.103       .  S
Cd190       O192   1.959       .  S
Cd190       O193   1.996       .  S
Cd191       O195   2.166       .  S
Cd191       O204   2.185       .  S
Cd191       O193   2.021       .  S
O192        C202   1.256       .  A
O193       Cd194   1.990       .  S
Cd194       O196   2.102       .  S
O195        C202   1.293       .  A
C197        O201   1.254       .  A
C203        O204   1.291       .  A
O205        C221   1.293       .  A
O205       Zn211   2.174       .  S
C206        O222   1.293       .  A
C206        O219   1.279       .  A
O207        C220   1.289       .  A
O207       Cd214   2.190       .  S
O208        C226   1.263       .  A
O208       Cd217   1.989       .  S
O209        C223   1.267       .  A
O209       Cd213   2.000   1_545  S
O210        C221   1.266       .  A
O210       Cd213   2.024       .  S
Zn211       O222   2.091   1_565  S
Zn211       O224   1.978       .  S
Zn211       O216   1.910       .  S
O212        C223   1.273       .  A
O212       Cd217   2.152       .  S
Cd213       O215   2.017       .  S
Cd213       O216   1.922       .  S
Cd214       O218   2.224       .  S
Cd214       O227   2.191       .  S
Cd214       O216   1.975       .  S
O215        C225   1.263       .  A
O216       Cd217   2.021   1_565  S
Cd217       O219   2.085       .  S
O218        C225   1.296       .  A
C220        O224   1.262       .  A
C220        C291   1.490       .  S
C221        C297   1.501       .  S
C223        C259   1.489       .  S
C225        C265   1.500       .  S
C226        O227   1.300   1_545  A
C226        C279   1.481       .  S
O228        C244   1.274   1_455  A
O228       Zn234   2.021       .  S
C229        O245   1.276       .  A
C229        O242   1.280       .  A
C229        C261   1.485       .  S
O230        C243   1.295   1_565  A
O230       Cd237   2.187       .  S
O231        C249   1.259       .  A
O231       Cd240   1.983       .  S
O232        C246   1.275       .  A
O232       Cd236   2.076   1_655  S
O233        C244   1.272       .  A
O233       Cd236   2.056   1_645  S
Zn234       O245   2.054       .  S
Zn234       O247   1.940       .  S
Zn234       O239   1.977   1_545  S
O235        C246   1.277   1_455  A
O235       Cd240   2.086       .  S
Cd236       O238   1.994   1_455  S
Cd236       O239   2.017       .  S
Cd237       O241   2.192       .  S
Cd237       O250   2.228       .  S
Cd237       O239   2.020       .  S
O238        C248   1.261   1_655  A
O239       Cd240   1.986       .  S
Cd240       O242   2.069   1_565  S
O241        C248   1.293       .  A
C243        O247   1.261       .  A
C246        C255   1.489       .  S
C248        C273   1.488       .  S
C249        O250   1.299       .  A
C249        C267   1.493       .  S
C251        C949   1.470       .  S
C251        N252   1.346   1_455  A
C251        N256   1.359       .  A
N252        C253   1.339       .  A
C253        N254   1.372       .  A
N254        C255   1.372       .  A
C255        N256   1.367   1_655  A
C257        C925   1.481       .  S
C257        N258   1.347   1_565  A
C257        N262   1.356       .  A
N258        C259   1.355       .  A
C259        N260   1.373       .  A
N260        C261   1.377       .  A
C261        N262   1.364   1_545  A
C263        C901   1.477       .  S
C263        N264   1.370       .  A
C263        N268   1.364       .  A
N264        C265   1.362       .  A
C265        N266   1.371       .  A
N266        C267   1.370       .  A
C267        N268   1.350       .  A
C269        C877   1.470       .  S
C269        N270   1.361   1_455  A
C269        N274   1.361       .  A
N270        C271   1.355       .  A
C271        N272   1.366       .  A
N272        C273   1.376   1_655  A
C273        N274   1.357       .  A
C275        C853   1.480   1_545  S
C275        N276   1.359       .  A
C275        N280   1.351   1_545  A
N276        C277   1.368       .  A
C277        N278   1.374       .  A
N278        C279   1.380       .  A
C279        N280   1.339   1_545  A
C281        C834   1.473   1_554  S
C281        N282   1.355       .  A
C281        N286   1.358   1_554  A
N282        C283   1.351       .  A
C283        N284   1.364       .  A
N284        C285   1.367   1_554  A
C285        N286   1.356       .  A
C287        C810   1.476       .  S
C287        N288   1.351       .  A
C287        N292   1.369       .  A
N288        C289   1.340       .  A
C289        N290   1.368       .  A
N290        C291   1.363       .  A
C291        N292   1.369       .  A
C293        C781   1.479       .  S
C293        N294   1.353       .  A
C293        N298   1.361       .  A
N294        C295   1.347       .  A
C295        N296   1.379       .  A
N296        C297   1.378       .  A
C297        N298   1.365       .  A
C299        C757   1.494       .  S
C299        N300   1.369       .  A
C299        N304   1.341       .  A
N300        C301   1.374       .  A
C301        N302   1.375       .  A
N302        C303   1.368       .  A
C303        N304   1.336       .  A
C305        C733   1.496       .  S
C305        N306   1.354       .  A
C305        N310   1.371       .  A
N306        C307   1.342       .  A
C307        N308   1.369       .  A
N308        C309   1.365       .  A
C309        N310   1.362       .  A
C311        C709   1.453       .  S
C311        N312   1.356       .  A
C311        N316   1.356       .  A
N312        C313   1.347       .  A
C313        N314   1.366       .  A
N314        C315   1.370       .  A
C315        N316   1.356       .  A
C317        C685   1.499       .  S
C317        N318   1.374       .  A
C317        N322   1.355       .  A
N318        C319   1.373       .  A
C319        N320   1.377       .  A
N320        C321   1.375       .  A
C321        N322   1.344       .  A
C323        C661   1.493       .  S
C323        N324   1.359       .  A
C323        N328   1.358       .  A
N324        C325   1.351       .  A
C325        N326   1.371       .  A
N326        C327   1.372       .  A
C327        N328   1.360       .  A
O329        C345   1.286       .  A
O329       Zn335   2.112       .  S
C330        O346   1.280       .  A
C330        O343   1.282       .  A
C330        C441   1.490       .  S
O331        C344   1.299       .  A
O331       Cd338   2.232       .  S
O332        C350   1.258       .  A
O332       Cd341   1.988       .  S
O333        C347   1.285       .  A
O333       Cd337   2.132       .  S
O334        C345   1.276       .  A
O334       Cd337   2.062       .  S
Zn335       O346   2.058       .  S
Zn335       O348   1.958       .  S
Zn335       O340   1.913       .  S
O336        C347   1.281       .  A
O336       Cd341   2.098       .  S
Cd337       O339   2.016       .  S
Cd337       O340   1.958       .  S
Cd338       O342   2.187       .  S
Cd338       O351   2.183       .  S
Cd338       O340   2.034       .  S
O339        C349   1.252       .  A
O340       Cd341   1.977       .  S
Cd341       O343   2.076       .  S
O342        C349   1.284       .  A
C344        O348   1.265       .  A
C344        C637   1.507       .  S
C345        C575   1.493       .  S
C347        C557   1.496       .  S
C349        C581   1.481       .  S
C350        O351   1.293       .  A
C350        C563   1.484       .  S
O352        C368   1.280       .  A
O352       Zn358   2.078       .  S
C353        O369   1.281   1_565  A
C353        O366   1.289       .  A
C353        C571   1.500       .  S
O354        C367   1.293       .  A
O354       Cd361   2.200       .  S
O355        C373   1.267   1_565  A
O355       Cd364   2.036       .  S
O356        C370   1.277   1_545  A
O356       Cd360   2.062       .  S
O357        C368   1.275       .  A
O357       Cd360   2.079       .  S
Zn358       O369   2.052       .  S
Zn358       O371   1.958       .  S
Zn358       O363   1.937       .  S
O359        C370   1.286       .  A
O359       Cd364   2.163       .  S
Cd360       O362   1.992       .  S
Cd360       O363   2.011       .  S
Cd361       O365   2.156       .  S
Cd361       O374   2.204       .  S
Cd361       O363   2.021       .  S
O362        C372   1.257       .  A
O363       Cd364   1.998   1_545  S
Cd364       O366   2.149       .  S
O365        C372   1.293       .  A
C367        O371   1.264       .  A
C367        C605   1.491       .  S
C368        C377   1.489       .  S
C370        C625   1.500       .  S
C372        C629   1.471       .  S
C373        O374   1.292       .  A
C373        C593   1.501   1_545  S
C375       C1146   1.473       .  S
C375        N376   1.357       .  A
C375        N380   1.352       .  A
N376        C377   1.358       .  A
C377        N378   1.383       .  A
N378        C379   1.376       .  A
C379        C397   1.499       .  S
C379        N380   1.346       .  A
O381        C397   1.286       .  A
O381       Zn387   2.058       .  S
C382        O398   1.278       .  A
C382        O395   1.273       .  A
C382        C443   1.492       .  S
O383        C396   1.293       .  A
O383       Cd390   2.183       .  S
O384        C402   1.258       .  A
O384       Cd393   1.996       .  S
O385        C399   1.284       .  A
O385       Cd389   2.061       .  S
O386        C397   1.277       .  A
O386       Cd389   2.112       .  S
Zn387       O398   2.074       .  S
Zn387       O400   1.856       .  S
Zn387       O392   1.886       .  S
O388        C399   1.273       .  A
O388       Cd393   2.050       .  S
Cd389       O391   2.038       .  S
Cd389       O392   1.952       .  S
Cd390       O394   2.236       .  S
Cd390       O403   2.223       .  S
Cd390       O392   2.023       .  S
O391        C401   1.267       .  A
O392       Cd393   1.956       .  S
Cd393       O395   2.072       .  S
O394        C401   1.295       .  A
C396        O400   1.253       .  A
C396        C635   1.460       .  S
C399        C406   1.456       .  S
C401        C631   1.512       .  S
C402        O403   1.290       .  A
C402        C611   1.493       .  S
C404        C666   1.464       .  S
C404        N405   1.342       .  A
C404        N409   1.366       .  A
N405        C406   1.336       .  A
C406        N407   1.360       .  A
N407        C408   1.367       .  A
C408        C417   1.481       .  S
C408        N409   1.370       .  A
C410        C805   1.470       .  S
C410        N411   1.353       .  A
C410        N415   1.358       .  A
N411        C412   1.358       .  A
C412        C434   1.464   1_556  S
C412        N413   1.376   1_556  A
N413        C414   1.365   1_554  A
C414        C446   1.494       .  S
C414        N415   1.350       .  A
O416        C432   1.280       .  A
O416       Zn422   2.039       .  S
C417        O433   1.279       .  A
C417        O430   1.271       .  A
O418        C431   1.293       .  A
O418       Cd425   2.196       .  S
O419        C437   1.261       .  A
O419       Cd428   1.982       .  S
O420        C434   1.276   1_556  A
O420       Cd424   2.082   1_556  S
O421        C432   1.275   1_556  A
O421       Cd424   2.071   1_556  S
Zn422       O433   2.044       .  S
Zn422       O435   1.902       .  S
Zn422       O427   1.915       .  S
O423        C434   1.273       .  A
O423       Cd428   2.051       .  S
Cd424       O426   2.009   1_554  S
Cd424       O427   1.984       .  S
Cd425       O429   2.181       .  S
Cd425       O438   2.183       .  S
Cd425       O427   2.034       .  S
O426        C436   1.263   1_556  A
O427       Cd428   1.988       .  S
Cd428       O430   2.070       .  S
O429        C436   1.291       .  A
C431        O435   1.255       .  A
C431        C613   1.486       .  S
C432        C617   1.492   1_554  S
C436        C599   1.487   1_554  S
C437        O438   1.292       .  A
C437        C589   1.480       .  S
C439        C906   1.494       .  S
C439        N440   1.356       .  A
C439        N444   1.363       .  A
N440        C441   1.352       .  A
C441        N442   1.372       .  A
N442        C443   1.374       .  A
C443        N444   1.360       .  A
O445        C461   1.284       .  A
O445       Zn451   2.024       .  S
C446        O462   1.284   1_556  A
C446        O459   1.285       .  A
O447        C460   1.282       .  A
O447       Cd454   2.188       .  S
O448        C466   1.260   1_556  A
O448       Cd457   2.029       .  S
O449        C463   1.286   1_554  A
O449       Cd453   2.102       .  S
O450        C461   1.276       .  A
O450       Cd453   2.088       .  S
Zn451       O462   2.089       .  S
Zn451       O464   1.950       .  S
Zn451       O456   1.870       .  S
O452        C463   1.280       .  A
O452       Cd457   2.101       .  S
Cd453       O455   1.972       .  S
Cd453       O456   1.931       .  S
Cd454       O458   2.155       .  S
Cd454       O467   2.134       .  S
Cd454       O456   1.976       .  S
O455        C465   1.258       .  A
O456       Cd457   1.995   1_554  S
Cd457       O459   2.070       .  S
O458        C465   1.285       .  A
C460        O464   1.254       .  A
C460        C587   1.485       .  S
C461        C623   1.496       .  S
C463        C649   1.496       .  S
C465        C595   1.461       .  S
C466        O467   1.286       .  A
C466        C472   1.482   1_554  S
C468       C1213   1.476       .  S
C468        N469   1.353   1_554  A
C468        N473   1.341       .  A
N469        C470   1.371       .  A
C470        C523   1.505       .  S
C470        N471   1.380       .  A
N471        C472   1.382       .  A
C472        N473   1.340   1_556  A
O474        C490   1.282   1_655  A
O474       Zn480   2.015       .  S
C475        O491   1.271       .  A
C475        O488   1.280       .  A
C475        C569   1.488       .  S
O476        C489   1.290       .  A
O476       Cd483   2.175       .  S
O477        C495   1.266   1_565  A
O477       Cd486   2.010       .  S
O478        C492   1.279       .  A
O478       Cd482   2.102   1_565  S
O479        C490   1.268       .  A
O479       Cd482   2.076       .  S
Zn480       O491   2.056   1_545  S
Zn480       O493   1.972       .  S
Zn480       O485   1.933       .  S
O481        C492   1.272   1_655  A
O481       Cd486   2.067       .  S
Cd482       O484   2.001       .  S
Cd482       O485   2.011   1_455  S
Cd483       O487   2.168       .  S
Cd483       O496   2.174       .  S
Cd483       O485   2.003       .  S
O484        C494   1.263   1_455  A
O485       Cd486   1.961   1_545  S
Cd486       O488   2.075       .  S
O487        C494   1.289       .  A
C489        O493   1.266       .  A
C489        C607   1.490       .  S
C490        C577   1.477       .  S
C492        C655   1.482       .  S
C494        C583   1.477   1_655  S
C495        O496   1.293       .  A
C495        C499   1.484   1_545  S
C497       C1122   1.490   1_565  S
C497        N498   1.358   1_565  A
C497        N502   1.365       .  A
N498        C499   1.349   1_545  A
C499        N500   1.370       .  A
N500        C501   1.366       .  A
C501        C518   1.489       .  S
C501        N502   1.361       .  A
O503        C519   1.286       .  A
O503       Zn509   2.046       .  S
C504        O520   1.277       .  A
C504        O517   1.271   1_655  A
C504        C653   1.477   1_655  S
O505        C518   1.296       .  A
O505       Cd512   2.216       .  S
O506        C524   1.259       .  A
O506       Cd515   1.985       .  S
O507        C521   1.283       .  A
O507       Cd511   2.090       .  S
O508        C519   1.280       .  A
O508       Cd511   2.125       .  S
Zn509       O520   2.075       .  S
Zn509       O522   1.914       .  S
Zn509       O514   1.880       .  S
O510        C521   1.270       .  A
O510       Cd515   2.063       .  S
Cd511       O513   2.013       .  S
Cd511       O514   1.956       .  S
Cd512       O516   2.218       .  S
Cd512       O525   2.247       .  S
Cd512       O514   2.022       .  S
O513        C523   1.256       .  A
O514       Cd515   1.955       .  S
Cd515       O517   2.025   1_655  S
O516        C523   1.281       .  A
C518        O522   1.258       .  A
C519        C647   1.493       .  S
C521        C641   1.474   1_655  S
C524        O525   1.301       .  A
C524        C551   1.502       .  S
O526        C542   1.290       .  A
O526       Zn532   2.083       .  S
C527        O543   1.284       .  A
C527        O540   1.286       .  A
C527        C565   1.511       .  S
O528        C541   1.294       .  A
O528       Cd535   2.206       .  S
O529        C547   1.268       .  A
O529       Cd538   2.053       .  S
O530        C544   1.281       .  A
O530       Cd534   2.079       .  S
O531        C542   1.280       .  A
O531       Cd534   2.118       .  S
Zn532       O543   2.092       .  S
Zn532       O545   1.949       .  S
Zn532       O537   1.940       .  S
O533        C544   1.283       .  A
O533       Cd538   2.125       .  S
Cd534       O536   2.014       .  S
Cd534       O537   2.001       .  S
Cd535       O539   2.190       .  S
Cd535       O548   2.151       .  S
Cd535       O537   2.006       .  S
O536        C546   1.260       .  A
O537       Cd538   1.977       .  S
Cd538       O540   2.104       .  S
O539        C546   1.290       .  A
C541        O545   1.260       .  A
C541        C559   1.495       .  S
C542        C553   1.505       .  S
C544        C601   1.503       .  S
C546        C643   1.484       .  S
C547        O548   1.291       .  A
C547        C619   1.490       .  S
C549        C954   1.489       .  S
C549        N550   1.367       .  A
C549        N554   1.354   1_655  A
N550        C551   1.362       .  A
C551        N552   1.386   1_655  A
N552        C553   1.372       .  A
C553        N554   1.345       .  A
C555        C714   1.470   1_455  S
C555        N556   1.354       .  A
C555        N560   1.359       .  A
N556        C557   1.349       .  A
C557        N558   1.378       .  A
N558        C559   1.381       .  A
C559        N560   1.352       .  A
C561        C738   1.466       .  S
C561        N562   1.352       .  A
C561        N566   1.356       .  A
N562        C563   1.358       .  A
C563        N564   1.388       .  A
N564        C565   1.372       .  A
C565        N566   1.345       .  A
C567        C762   1.488       .  S
C567        N568   1.343       .  A
C567        N572   1.368       .  A
N568        C569   1.338       .  A
C569        N570   1.371       .  A
N570        C571   1.383       .  A
C571        N572   1.374       .  A
C573        C978   1.491       .  S
C573        N574   1.371   1_655  A
C573        N578   1.340       .  A
N574        C575   1.373       .  A
C575        N576   1.378       .  A
N576        C577   1.365       .  A
C577        N578   1.332   1_455  A
C579       C1002   1.468       .  S
C579        N580   1.363       .  A
C579        N584   1.361       .  A
N580        C581   1.357       .  A
C581        N582   1.367       .  A
N582        C583   1.365       .  A
C583        N584   1.348       .  A
C585        C786   1.486       .  S
C585        N586   1.355       .  A
C585        N590   1.363       .  A
N586        C587   1.354       .  A
C587        N588   1.359       .  A
N588        C589   1.376       .  A
C589        N590   1.362       .  A
C591       C1093   1.489       .  S
C591        N592   1.375       .  A
C591        N596   1.344       .  A
N592        C593   1.372       .  A
C593        N594   1.375       .  A
N594        C595   1.366       .  A
C595        N596   1.335       .  A
C597       C1050   1.501       .  S
C597        N598   1.363   1_556  A
C597        N602   1.366       .  A
N598        C599   1.355   1_554  A
C599        N600   1.372       .  A
N600        C601   1.367       .  A
C601        N602   1.362       .  A
C603        C690   1.489       .  S
C603        N604   1.367       .  A
C603        N608   1.365       .  A
N604        C605   1.361       .  A
C605        N606   1.368       .  A
N606        C607   1.369       .  A
C607        N608   1.357       .  A
C609       C1194   1.461       .  S
C609        N610   1.353       .  A
C609        N614   1.357       .  A
N610        C611   1.354       .  A
C611        N612   1.368       .  A
N612        C613   1.382       .  A
C613        N614   1.356       .  A
C615       C1074   1.470       .  S
C615        N616   1.354       .  A
C615        N620   1.351   1_554  A
N616        C617   1.363   1_554  A
C617        N618   1.377       .  A
N618        C619   1.378       .  A
C619        N620   1.349       .  A
C621       C1026   1.462       .  S
C621        N622   1.352       .  A
C621        N626   1.352       .  A
N622        C623   1.353       .  A
C623        N624   1.385       .  A
N624        C625   1.381       .  A
C625        N626   1.352       .  A
C627       C1170   1.455       .  S
C627        N628   1.339       .  A
C627        N632   1.365       .  A
N628        C629   1.341       .  A
C629        N630   1.382       .  A
N630        C631   1.376       .  A
C631        N632   1.364       .  A
C633        C930   1.481       .  S
C633        N634   1.350       .  A
C633        N638   1.375       .  A
N634        C635   1.338       .  A
C635        N636   1.369       .  A
N636        C637   1.372       .  A
C637        N638   1.365       .  A
C639        C882   1.472   1_556  S
C639        N640   1.350       .  A
C639        N644   1.365       .  A
N640        C641   1.345       .  A
C641        N642   1.367       .  A
N642        C643   1.370       .  A
C643        N644   1.365       .  A
C645        C829   1.453   1_565  S
C645        N646   1.349       .  A
C645        N650   1.351       .  A
N646        C647   1.353       .  A
C647        N648   1.383       .  A
N648        C649   1.382       .  A
C649        N650   1.349       .  A
C651        C858   1.464       .  S
C651        N652   1.350       .  A
C651        N656   1.362       .  A
N652        C653   1.343       .  A
C653        N654   1.365       .  A
N654        C655   1.375       .  A
C655        N656   1.364       .  A
C657        C658   1.414       .  A
C657        C662   1.405       .  A
C657        C671   1.442       .  S
C658        C663   1.489       .  S
C658        C659   1.409       .  A
C659        C660   1.406       .  A
C659        H678   1.084       .  S
C660        C661   1.411       .  A
C660        C672   1.441       .  S
C661        C662   1.405       .  A
C662        H677   1.082       .  S
C663        C664   1.413       .  A
C663        C668   1.402       .  A
C664        C665   1.395       .  A
C664        H679   1.082       .  S
C665        C666   1.402       .  A
C665        C669   1.445       .  S
C666        C667   1.412       .  A
C667        C668   1.400       .  A
C667        H680   1.085       .  S
C668        C670   1.442       .  S
C669        N673   1.157       .  T
C670        N674   1.157       .  T
C671        N676   1.157       .  T
C672        N675   1.156       .  T
C681        C682   1.412       .  A
C681        C686   1.408       .  A
C681        C695   1.443       .  S
C682        C687   1.491       .  S
C682        C683   1.398       .  A
C683        C684   1.400       .  A
C683        H702   1.085       .  S
C684        C685   1.424       .  A
C684        C696   1.446       .  S
C685        C686   1.407       .  A
C686        H701   1.084       .  S
C687        C688   1.406       .  A
C687        C692   1.409       .  A
C688        C689   1.405       .  A
C688        H703   1.085       .  S
C689        C690   1.414       .  A
C689        C693   1.445       .  S
C690        C691   1.407       .  A
C691        C692   1.403       .  A
C691        H704   1.085       .  S
C692        C694   1.443       .  S
C693        N697   1.158       .  T
C694        N698   1.157       .  T
C695        N700   1.157       .  T
C696        N699   1.158       .  T
C705        C706   1.407       .  A
C705        C710   1.391       .  A
C705        C719   1.444       .  S
C706        C711   1.470       .  S
C706        C707   1.405       .  A
C707        C708   1.396       .  A
C707        H726   1.085       .  S
C708        C709   1.403       .  A
C708        C720   1.443       .  S
C709        C710   1.401       .  A
C710        H725   1.086       .  S
C711        C712   1.395       .  A
C711        C716   1.411       .  A
C712        C713   1.393       .  A
C712        H727   1.085       .  S
C713        C714   1.421       .  A
C713        C717   1.445       .  S
C714        C715   1.401       .  A
C715        C716   1.395       .  A
C715        H728   1.085       .  S
C716        C718   1.445       .  S
C717        N721   1.157       .  T
C718        N722   1.157       .  T
C719        N724   1.157       .  T
C720        N723   1.157       .  T
C729        C730   1.403       .  A
C729        C734   1.408       .  A
C729        C743   1.442       .  S
C730        C735   1.479       .  S
C730        C731   1.408       .  A
C731        C732   1.399       .  A
C731        H750   1.082       .  S
C732        C733   1.403       .  A
C732        C744   1.443       .  S
C733        C734   1.419       .  A
C734        H749   1.085       .  S
C735        C736   1.405       .  A
C735        C740   1.414       .  A
C736        C737   1.405       .  A
C736        H751   1.084       .  S
C737        C738   1.411       .  A
C737        C741   1.443       .  S
C738        C739   1.398       .  A
C739        C740   1.401       .  A
C739        H752   1.084       .  S
C740        C742   1.441       .  S
C741        N745   1.157       .  T
C742        N746   1.156       .  T
C743        N748   1.157       .  T
C744        N747   1.157       .  T
C753        C754   1.425       .  A
C753        C758   1.397       .  A
C753        C767   1.442       .  S
C754        C759   1.491       .  S
C754        C755   1.409       .  A
C755        C756   1.408       .  A
C755        H774   1.084       .  S
C756        C757   1.416       .  A
C756        C768   1.443       .  S
C757        C758   1.387       .  A
C758        H773   1.065       .  S
C759        C760   1.410       .  A
C759        C764   1.401       .  A
C760        C761   1.404       .  A
C760        H775   1.072       .  S
C761        C762   1.399       .  A
C761        C765   1.442       .  S
C762        C763   1.416       .  A
C763        C764   1.402       .  A
C763        H776   1.081       .  S
C764        C766   1.445       .  S
C765        N769   1.157       .  T
C766        N770   1.158       .  T
C767        N772   1.157       .  T
C768        N771   1.157       .  T
C777        C778   1.414       .  A
C777        C782   1.393       .  A
C777        C791   1.445       .  S
C778        C783   1.493       .  S
C778        C779   1.410       .  A
C779        C780   1.405       .  A
C779        H798   1.085       .  S
C780        C781   1.410       .  A
C780        C792   1.443       .  S
C781        C782   1.402       .  A
C782        H797   1.086       .  S
C783        C784   1.408       .  A
C783        C788   1.414       .  A
C784        C785   1.405       .  A
C784        H799   1.084       .  S
C785        C786   1.413       .  A
C785        C789   1.443       .  S
C786        C787   1.405       .  A
C787        C788   1.394       .  A
C787        H800   1.085       .  S
C788        C790   1.446       .  S
C789        N793   1.157       .  T
C790        N794   1.157       .  T
C791        N796   1.157       .  T
C792        N795   1.157       .  T
C801        C802   1.418       .  A
C801        C806   1.399       .  A
C801        C815   1.443       .  S
C802        C807   1.484       .  S
C802        C803   1.406       .  A
C803        C804   1.408       .  A
C803        H822   1.082       .  S
C804        C805   1.405       .  A
C804        C816   1.441       .  S
C805        C806   1.395       .  A
C806        H821   1.081       .  S
C807        C808   1.405       .  A
C807        C812   1.405       .  A
C808        C809   1.396       .  A
C808        H823   1.084       .  S
C809        C810   1.409       .  A
C809        C813   1.444       .  S
C810        C811   1.414       .  A
C811        C812   1.407       .  A
C811        H824   1.084       .  S
C812        C814   1.443       .  S
C813        N817   1.157       .  T
C814        N818   1.157       .  T
C815        N820   1.156       .  T
C816        N819   1.157       .  T
C825        C826   1.410   1_554  A
C825        C830   1.391       .  A
C825        C839   1.445       .  S
C826        C831   1.467       .  S
C826        C827   1.400       .  A
C827        C828   1.395       .  A
C827        H846   1.085       .  S
C828        C829   1.409       .  A
C828        C840   1.445       .  S
C829        C830   1.398   1_556  A
C830        H845   1.086       .  S
C831        C832   1.394       .  A
C831        C836   1.412       .  A
C832        C833   1.392   1_556  A
C832        H847   1.085   1_556  S
C833        C834   1.418   1_554  A
C833        C837   1.442       .  S
C834        C835   1.402       .  A
C835        C836   1.397       .  A
C835        H848   1.085       .  S
C836        C838   1.446       .  S
C837        N841   1.156       .  T
C838        N842   1.157       .  T
C839        N844   1.157       .  T
C840        N843   1.157       .  T
C849        C850   1.415       .  A
C849        C854   1.408       .  A
C849        C863   1.442       .  S
C850        C855   1.490       .  S
C850        C851   1.411       .  A
C851        C852   1.404       .  A
C851        H870   1.084       .  S
C852        C853   1.404       .  A
C852        C864   1.442   1_565  S
C853        C854   1.409       .  A
C854        H869   1.084       .  S
C855        C856   1.402       .  A
C855        C860   1.421       .  A
C856        C857   1.401       .  A
C856        H871   1.078       .  S
C857        C858   1.412       .  A
C857        C861   1.444       .  S
C858        C859   1.395       .  A
C859        C860   1.397       .  A
C859        H872   1.086       .  S
C860        C862   1.443       .  S
C861        N865   1.157       .  T
C862        N866   1.157   1_565  T
C863        N868   1.157       .  T
C864        N867   1.157       .  T
C873        C874   1.413       .  A
C873        C878   1.402       .  A
C873        C887   1.444       .  S
C874        C879   1.480       .  S
C874        C875   1.402       .  A
C875        C876   1.396       .  A
C875        H894   1.085       .  S
C876        C877   1.411       .  A
C876        C888   1.444       .  S
C877        C878   1.402       .  A
C878        H893   1.085       .  S
C879        C880   1.404       .  A
C879        C884   1.410       .  A
C880        C881   1.405       .  A
C880        H895   1.084       .  S
C881        C882   1.412       .  A
C881        C885   1.443       .  S
C882        C883   1.402       .  A
C883        C884   1.392       .  A
C883        H896   1.085   1_455  S
C884        C886   1.445   1_455  S
C885        N889   1.157       .  T
C886        N890   1.157       .  T
C887        N892   1.157       .  T
C888        N891   1.157   1_455  T
C897        C898   1.412       .  A
C897        C902   1.399       .  A
C897        C911   1.444       .  S
C898        C903   1.480       .  S
C898        C899   1.400       .  A
C899        C900   1.398       .  A
C899        H918   1.085       .  S
C900        C901   1.416       .  A
C900        C912   1.445       .  S
C901        C902   1.402       .  A
C902        H917   1.085       .  S
C903        C904   1.398       .  A
C903        C908   1.407       .  A
C904        C905   1.394       .  A
C904        H919   1.086       .  S
C905        C906   1.423       .  A
C905        C909   1.445       .  S
C906        C907   1.412       .  A
C907        C908   1.403       .  A
C907        H920   1.084       .  S
C908        C910   1.444       .  S
C909        N913   1.158       .  T
C910        N914   1.157       .  T
C911        N916   1.157       .  T
C912        N915   1.157       .  T
C921        C922   1.414       .  A
C921        C926   1.402       .  A
C921        C935   1.442   1_565  S
C922        C927   1.484   1_565  S
C922        C923   1.386       .  A
C923        C924   1.393       .  A
C923        H942   1.078       .  S
C924        C925   1.420       .  A
C924        C936   1.431       .  S
C925        C926   1.403       .  A
C926        H941   1.082   1_565  S
C927        C928   1.416       .  A
C927        C932   1.396       .  A
C928        C929   1.398       .  A
C928        H943   1.083       .  S
C929        C930   1.401       .  A
C929        C933   1.442       .  S
C930        C931   1.416       .  A
C931        C932   1.394       .  A
C931        H944   1.084       .  S
C932        C934   1.441       .  S
C933        N937   1.157       .  T
C934        N938   1.156       .  T
C935        N940   1.157       .  T
C936        N939   1.154       .  T
C945        C946   1.416       .  A
C945        C950   1.398       .  A
C945        C959   1.441       .  S
C946        C951   1.476       .  S
C946        C947   1.397       .  A
C947        C948   1.398       .  A
C947        H966   1.085       .  S
C948        C949   1.416       .  A
C948        C960   1.445       .  S
C949        C950   1.395       .  A
C950        H965   1.085       .  S
C951        C952   1.407   1_455  A
C951        C956   1.403       .  A
C952        C953   1.398       .  A
C952        H967   1.085       .  S
C953        C954   1.408       .  A
C953        C957   1.441       .  S
C954        C955   1.414       .  A
C955        C956   1.402   1_655  A
C955        H968   1.085   1_655  S
C956        C958   1.443       .  S
C957        N961   1.156       .  T
C958        N962   1.157       .  T
C959        N964   1.156       .  T
C960        N963   1.157       .  T
C969        C970   1.408       .  A
C969        C974   1.398       .  A
C969        C983   1.441       .  S
C970        C975   1.483       .  S
C970        C971   1.398       .  A
C971        C972   1.399       .  A
C971        H990   1.084       .  S
C972        C973   1.425       .  A
C972        C984   1.445       .  S
C973        C974   1.404       .  A
C974        H989   1.084       .  S
C975        C976   1.417       .  A
C975        C980   1.394       .  A
C976        C977   1.400       .  A
C976        H991   1.081       .  S
C977        C978   1.405       .  A
C977        C981   1.443       .  S
C978        C979   1.423       .  A
C979        C980   1.391       .  A
C979        H992   1.082       .  S
C980        C982   1.445       .  S
C981        N985   1.157       .  T
C982        N986   1.157       .  T
C983        N988   1.157       .  T
C984        N987   1.157       .  T
C993        C994   1.403       .  A
C993        C998   1.396   1_455  A
C993       C1007   1.444       .  S
C994        C999   1.467       .  S
C994        C995   1.401   1_455  A
C995        C996   1.395       .  A
C995       H1014   1.085       .  S
C996        C997   1.411       .  A
C996       C1008   1.444       .  S
C997        C998   1.409       .  A
C998       H1013   1.085       .  S
C999       C1000   1.401       .  A
C999       C1004   1.404   1_455  A
C1000      C1001   1.397       .  A
C1000      H1015   1.085       .  S
C1001      C1002   1.411       .  A
C1001      C1005   1.444       .  S
C1002      C1003   1.405       .  A
C1003      C1004   1.393   1_455  A
C1003      H1016   1.085   1_455  S
C1004      C1006   1.444       .  S
C1005      N1009   1.157       .  T
C1006      N1010   1.157       .  T
C1007      N1012   1.157       .  T
C1008      N1011   1.157       .  T
C1017      C1018   1.410   1_545  A
C1017      C1022   1.391       .  A
C1017      C1031   1.445       .  S
C1018      C1023   1.478       .  S
C1018      C1019   1.401       .  A
C1019      C1020   1.399       .  A
C1019      H1038   1.084       .  S
C1020      C1021   1.418   1_565  A
C1020      C1032   1.445       .  S
C1021      C1022   1.404       .  A
C1022      H1037   1.081       .  S
C1023      C1024   1.403   1_565  A
C1023      C1028   1.408       .  A
C1024      C1025   1.388   1_545  A
C1024      H1039   1.085       .  S
C1025      C1026   1.409       .  A
C1025      C1029   1.447   1_565  S
C1026      C1027   1.403       .  A
C1027      C1028   1.400       .  A
C1027      H1040   1.085       .  S
C1028      C1030   1.440       .  S
C1029      N1033   1.158       .  T
C1030      N1034   1.156       .  T
C1031      N1036   1.157       .  T
C1032      N1035   1.158       .  T
C1041      C1042   1.408       .  A
C1041      C1046   1.410       .  A
C1041      C1055   1.443       .  S
C1042      C1047   1.489       .  S
C1042      C1043   1.400       .  A
C1043      C1044   1.399       .  A
C1043      H1062   1.085       .  S
C1044      C1045   1.419       .  A
C1044      C1056   1.444       .  S
C1045      C1046   1.412       .  A
C1046      H1061   1.084       .  S
C1047      C1048   1.402   1_554  A
C1047      C1052   1.407       .  A
C1048      C1049   1.406       .  A
C1048      H1063   1.083       .  S
C1049      C1050   1.419       .  A
C1049      C1053   1.441       .  S
C1050      C1051   1.410   1_556  A
C1051      C1052   1.401       .  A
C1051      H1064   1.084       .  S
C1052      C1054   1.443       .  S
C1053      N1057   1.156       .  T
C1054      N1058   1.157       .  T
C1055      N1060   1.157       .  T
C1056      N1059   1.157       .  T
C1065      C1066   1.405       .  A
C1065      C1070   1.402       .  A
C1065      C1079   1.443       .  S
C1066      C1071   1.486       .  S
C1066      C1067   1.416       .  A
C1067      C1068   1.402   1_554  A
C1067      H1086   1.084   1_554  S
C1068      C1069   1.402   1_556  A
C1068      C1080   1.442       .  S
C1069      C1070   1.411       .  A
C1070      H1085   1.080       .  S
C1071      C1072   1.409       .  A
C1071      C1076   1.399       .  A
C1072      C1073   1.400       .  A
C1072      H1087   1.084       .  S
C1073      C1074   1.406       .  A
C1073      C1077   1.443       .  S
C1074      C1075   1.410       .  A
C1075      C1076   1.400       .  A
C1075      H1088   1.085       .  S
C1076      C1078   1.436       .  S
C1077      N1081   1.157       .  T
C1078      N1082   1.155       .  T
C1079      N1084   1.157       .  T
C1080      N1083   1.157       .  T
C1089      C1090   1.415       .  A
C1089      C1094   1.399       .  A
C1089      C1103   1.438   1_565  S
C1090      C1095   1.477       .  S
C1090      C1091   1.391       .  A
C1091      C1092   1.396       .  A
C1091      H1110   1.085       .  S
C1092      C1093   1.434       .  A
C1092      C1104   1.447       .  S
C1093      C1094   1.398       .  A
C1094      H1109   1.084   1_565  S
C1095      C1096   1.408       .  A
C1095      C1100   1.400   1_655  A
C1096      C1097   1.395       .  A
C1096      H1111   1.086       .  S
C1097      C1098   1.411   1_655  A
C1097      C1101   1.444       .  S
C1098      C1099   1.412       .  A
C1099      C1100   1.398       .  A
C1099      H1112   1.085       .  S
C1100      C1102   1.442       .  S
C1101      N1105   1.157       .  T
C1102      N1106   1.157       .  T
C1103      N1108   1.156       .  T
C1104      N1107   1.158       .  T
C1113      C1114   1.410       .  A
C1113      C1118   1.386       .  A
C1113      C1127   1.447       .  S
C1114      C1119   1.474       .  S
C1114      C1115   1.405       .  A
C1115      C1116   1.405       .  A
C1115      H1134   1.084       .  S
C1116      C1117   1.412       .  A
C1116      C1128   1.444       .  S
C1117      C1118   1.402       .  A
C1118      H1133   1.085       .  S
C1119      C1120   1.396       .  A
C1119      C1124   1.408       .  A
C1120      C1121   1.396       .  A
C1120      H1135   1.085       .  S
C1121      C1122   1.422       .  A
C1121      C1125   1.444       .  S
C1122      C1123   1.409       .  A
C1123      C1124   1.397       .  A
C1123      H1136   1.084   1_545  S
C1124      C1126   1.445   1_545  S
C1125      N1129   1.157       .  T
C1126      N1130   1.157       .  T
C1127      N1132   1.157   1_545  T
C1128      N1131   1.157       .  T
C1137      C1138   1.412       .  A
C1137      C1142   1.394       .  A
C1137      C1151   1.445       .  S
C1138      C1143   1.480       .  S
C1138      C1139   1.402       .  A
C1139      C1140   1.396       .  A
C1139      H1158   1.085       .  S
C1140      C1141   1.417       .  A
C1140      C1152   1.444       .  S
C1141      C1142   1.406       .  A
C1142      H1157   1.084       .  S
C1143      C1144   1.400       .  A
C1143      C1148   1.411       .  A
C1144      C1145   1.387       .  A
C1144      H1159   1.085       .  S
C1145      C1146   1.414       .  A
C1145      C1149   1.446       .  S
C1146      C1147   1.405       .  A
C1147      C1148   1.401       .  A
C1147      H1160   1.084       .  S
C1148      C1150   1.444       .  S
C1149      N1153   1.157       .  T
C1150      N1154   1.157       .  T
C1151      N1156   1.157       .  T
C1152      N1155   1.157       .  T
C1161      C1162   1.395       .  A
C1161      C1166   1.393       .  A
C1161      C1175   1.444       .  S
C1162      C1167   1.479       .  S
C1162      C1163   1.416       .  A
C1163      C1164   1.400       .  A
C1163      H1182   1.083       .  S
C1164      C1165   1.403       .  A
C1164      C1176   1.442       .  S
C1165      C1166   1.422       .  A
C1166      H1181   1.083       .  S
C1167      C1168   1.399       .  A
C1167      C1172   1.417       .  A
C1168      C1169   1.398       .  A
C1168      H1183   1.083       .  S
C1169      C1170   1.412       .  A
C1169      C1173   1.443       .  S
C1170      C1171   1.394       .  A
C1171      C1172   1.396       .  A
C1171      H1184   1.085       .  S
C1172      C1174   1.443       .  S
C1173      N1177   1.157       .  T
C1174      N1178   1.157       .  T
C1175      N1180   1.157       .  T
C1176      N1179   1.157       .  T
C1185      C1186   1.409       .  A
C1185      C1190   1.400       .  A
C1185      C1199   1.443       .  S
C1186      C1191   1.476       .  S
C1186      C1187   1.400       .  A
C1187      C1188   1.396       .  A
C1187      H1206   1.085       .  S
C1188      C1189   1.410       .  A
C1188      C1200   1.443       .  S
C1189      C1190   1.403       .  A
C1190      H1205   1.085       .  S
C1191      C1192   1.399       .  A
C1191      C1196   1.415       .  A
C1192      C1193   1.398       .  A
C1192      H1207   1.085       .  S
C1193      C1194   1.412       .  A
C1193      C1197   1.444       .  S
C1194      C1195   1.397       .  A
C1195      C1196   1.397       .  A
C1195      H1208   1.085       .  S
C1196      C1198   1.445       .  S
C1197      N1201   1.157       .  T
C1198      N1202   1.157       .  T
C1199      N1204   1.157       .  T
C1200      N1203   1.157   1_455  T
C1209      C1210   1.407       .  A
C1209      C1214   1.406       .  A
C1209      C1223   1.442       .  S
C1210      C1215   1.488       .  S
C1210      C1211   1.407       .  A
C1211      C1212   1.400       .  A
C1211      H1230   1.078       .  S
C1212      C1213   1.403       .  A
C1212      C1224   1.442       .  S
C1213      C1214   1.412       .  A
C1214      H1229   1.084       .  S
C1215      C1216   1.397       .  A
C1215      C1220   1.395       .  A
C1216      C1217   1.404       .  A
C1216      H1231   1.060       .  S
C1217      C1218   1.401       .  A
C1217      C1221   1.439       .  S
C1218      C1219   1.418       .  A
C1219      C1220   1.414       .  A
C1219      H1232   1.078       .  S
C1220      C1222   1.439       .  S
C1221      N1225   1.156       .  T
C1222      N1226   1.156       .  T
C1223      N1228   1.157       .  T
C1224      N1227   1.157       .  T
