geometry optimzed in LAMMPS
_audit_creation_date              2020-11-30 
_audit_creation_method            'lammps2cif' 
_symmetry_space_group_name_H-M    'P1' 
_symmetry_Int_Tables_number       1 
_symmetry_cell_setting            triclinic 
loop_ 
_symmetry_equiv_pos_as_xyz 
  x,y,z 
_cell_length_a                    33.581731 
_cell_length_b                    33.57718945893375 
_cell_length_c                    33.800356682938556 
_cell_angle_alpha                 90.40790138740309 
_cell_angle_beta                  90.08222326578088 
_cell_angle_gamma                 89.57267846494472 
loop_ 
_atom_site_label 
_atom_site_type_symbol 
_atom_site_fract_x 
_atom_site_fract_y 
_atom_site_fract_z 
_atom_site_charge 
Zn1        Zn  0.77652749  0.69870780  0.73688885     1.49700
Zn2        Zn  0.69835353  0.73401977  0.78006742     1.49400
Zn3        Zn  0.77877104  0.77480359  0.77927193     1.49100
Zn4        Zn  0.73153729  0.77944896  0.70228731     1.49500
O5          O  0.74436135  0.74581999  0.74719839    -1.84100
O6          O  0.74189372  0.65036116  0.74771656    -0.74700
O7          O  0.70295474  0.76533156  0.83350265    -0.74500
O8          O  0.83499584  0.76394383  0.76824632    -0.74000
O9          O  0.69260472  0.67405478  0.78504820    -0.74700
O10         O  0.83090911  0.69878547  0.76845233    -0.74300
O11         O  0.76837559  0.76127706  0.83487276    -0.74900
O12         O  0.75127495  0.83916900  0.71146020    -0.74300
O13         O  0.64852210  0.74625552  0.74816958    -0.75000
O14         O  0.77405202  0.83251571  0.77252957    -0.74400
O15         O  0.67180870  0.77485821  0.69354201    -0.74900
O16         O  0.75166588  0.74993164  0.65314436    -0.74800
O17         O  0.78237773  0.69634554  0.67783879    -0.74600
C18         C  0.70891967  0.64545163  0.76579495     0.77200
C19         C  0.73610900  0.77205974  0.85108172     0.77700
C20         C  0.85031720  0.73054351  0.77644283     0.76600
C21         C  0.76617868  0.85447102  0.74320628     0.77000
C22         C  0.64349268  0.75938497  0.71318101     0.78100
C23         C  0.76783117  0.71551978  0.64865277     0.77200
C24         C  0.86571860  0.99706729  0.74980866    -0.02400
Zn25       Zn  0.72627433  0.21143616  0.74547857     1.49700
Zn26       Zn  0.80762628  0.24151064  0.79065486     1.49400
Zn27       Zn  0.77372099  0.28570283  0.71200572     1.49100
Zn28       Zn  0.73135964  0.28870071  0.78917123     1.49500
O29         O  0.76193810  0.25440459  0.75753522    -1.84100
O30         O  0.75533122  0.16082779  0.75930393    -0.74700
O31         O  0.85803101  0.25718037  0.76054869    -0.74500
O32         O  0.75716367  0.25539684  0.66264136    -0.74000
O33         O  0.81177515  0.18064122  0.78873692    -0.74700
O34         O  0.72087456  0.20560198  0.68627291    -0.74300
O35         O  0.83303915  0.28794052  0.70772275    -0.74900
O36         O  0.74735930  0.34455560  0.78232171    -0.74300
O37         O  0.80145228  0.27088696  0.84679002    -0.75000
O38         O  0.74527716  0.33985474  0.71726943    -0.74400
O39         O  0.73613387  0.27512791  0.84505576    -0.74900
O40         O  0.67417742  0.28582579  0.77729283    -0.74800
O41         O  0.67174329  0.22020656  0.77258742    -0.74600
C42         C  0.79001035  0.15360268  0.77307487     0.77200
C43         C  0.86258414  0.27357055  0.72686126     0.77700
C44         C  0.73736303  0.22352557  0.65760708     0.76600
C45         C  0.73816254  0.35931428  0.74922609     0.77000
C46         C  0.76837181  0.28148906  0.86309613     0.78100
C47         C  0.65501044  0.25368362  0.78061818     0.77200
C48         C  0.62276530  0.49244093  0.75065022    -0.02400
C49         C  0.74876761  0.62899832  0.49558056    -0.02400
Zn50       Zn  0.71126264  0.77629731  0.21396404     1.49700
Zn51       Zn  0.79166121  0.73700008  0.22055115     1.49400
Zn52       Zn  0.75000826  0.78115497  0.29450938     1.49100
Zn53       Zn  0.71238814  0.69824359  0.25916508     1.49500
O54         O  0.74244182  0.74640793  0.24893476    -1.84100
O55         O  0.72642839  0.76883976  0.15853403    -0.74700
O56         O  0.83776775  0.75207179  0.25541431    -0.74500
O57         O  0.71908456  0.83504441  0.28857316    -0.74000
O58         O  0.79181974  0.76761309  0.16760827    -0.74700
O59         O  0.71505018  0.83302875  0.22363383    -0.74300
O60         O  0.80952491  0.78628402  0.30444736    -0.74900
O61         O  0.70939489  0.69352347  0.31849922    -0.74300
O62         O  0.80013517  0.67780453  0.21556831    -0.75000
O63         O  0.73380646  0.75061805  0.34260504    -0.74400
O64         O  0.74778434  0.64977535  0.24427988    -0.74900
O65         O  0.65553073  0.70117226  0.23247323    -0.74800
O66         O  0.65458907  0.76539211  0.21774077    -0.74600
C67         C  0.76130004  0.77564224  0.14639202     0.77200
C68         C  0.84022331  0.77030459  0.28846623     0.77700
C69         C  0.70901512  0.85120589  0.25578713     0.76600
C70         C  0.72108719  0.71532027  0.34724389     0.77000
C71         C  0.78249605  0.64712872  0.22874372     0.78100
C72         C  0.63706795  0.73239355  0.22013245     0.77200
C73         C  0.74483100  0.86727530  0.99949003    -0.02400
C74         C  0.49210246  0.74569854  0.12192752    -0.02400
C75         C  0.37129978  0.00036971  0.75601630    -0.02400
C76         C  0.76290991  0.37901960  0.01249100    -0.02400
C77         C  0.25684242  0.62903119  0.99331393    -0.02400
C78         C  0.12807541  0.49914781  0.74621438    -0.02400
C79         C  0.74202416  0.13633330  0.50478354    -0.02400
C80         C  0.99596443  0.76420544  0.37232518    -0.02400
Zn81       Zn  0.26506410  0.71194377  0.21013687     1.49700
Zn82       Zn  0.22488392  0.71796267  0.28969047     1.49400
Zn83       Zn  0.27277858  0.79260450  0.25405102     1.49100
Zn84       Zn  0.19285813  0.76407570  0.20977095     1.49500
O85         O  0.23790863  0.74817465  0.24283624    -1.84100
O86         O  0.28875904  0.66851448  0.23819399    -0.74700
O87         O  0.23922269  0.75176685  0.33701453    -0.74500
O88         O  0.32689522  0.78472837  0.22557771    -0.74000
O89         O  0.25398533  0.66277857  0.29331153    -0.74700
O90         O  0.31049441  0.73574157  0.18411915    -0.74300
O91         O  0.27951438  0.79780825  0.31296891    -0.74900
O92         O  0.18724156  0.82414898  0.21348853    -0.74300
O93         O  0.16529133  0.71819665  0.29340707    -0.75000
O94         O  0.24263375  0.84462110  0.24289123    -0.74400
O95         O  0.14211246  0.74934855  0.23959778    -0.74900
O96         O  0.20247318  0.74329311  0.15106893    -0.74800
O97         O  0.23057813  0.68761419  0.17085947    -0.74600
C98         C  0.28127912  0.65043026  0.26976024     0.77200
C99         C  0.26001868  0.78303702  0.34157039     0.77700
C100        C  0.33526577  0.76098561  0.19690508     0.76600
C101        C  0.20750721  0.85164301  0.23004930     0.77000
C102        C  0.13742562  0.73611046  0.27472589     0.78100
C103        C  0.21939518  0.70983449  0.14299809     0.77200
C104        C  0.24018568  0.87476176  0.49071817    -0.02400
C105        C  0.87974371  0.49778133  0.23940743    -0.02400
Zn106      Zn  0.80698356  0.25618476  0.27980068     1.49700
Zn107      Zn  0.72504617  0.29382571  0.24455417     1.49400
Zn108      Zn  0.76439428  0.21660449  0.20222072     1.49100
Zn109      Zn  0.72805580  0.21200780  0.28075333     1.49500
O110        O  0.75820907  0.24674166  0.25070453    -1.84100
O111        O  0.81615875  0.31604144  0.27846988    -0.74700
O112        O  0.71488149  0.30212153  0.18617709    -0.74500
O113        O  0.82303452  0.21026152  0.19171357    -0.74000
O114        O  0.75955959  0.34221466  0.25581902    -0.74700
O115        O  0.85284823  0.23638579  0.24509454    -0.74300
O116        O  0.74827798  0.25195755  0.15820479    -0.74900
O117        O  0.73749560  0.15600463  0.26671103    -0.74300
O118        O  0.67291978  0.28853559  0.27786643    -0.75000
O119        O  0.73136020  0.16465112  0.20248625    -0.74400
O120        O  0.67084830  0.22275200  0.27565930    -0.74900
O121        O  0.73994747  0.21569249  0.33659779    -0.74800
O122        O  0.80429717  0.23054034  0.33670292    -0.74600
C123        C  0.79625858  0.34570135  0.26527585     0.77200
C124        C  0.73031057  0.28525107  0.15582000     0.77700
C125        C  0.85410681  0.22209250  0.20993877     0.76600
C126        C  0.72606736  0.14363972  0.23333069     0.77000
C127        C  0.65511772  0.25574901  0.28533750     0.78100
C128        C  0.77316656  0.21712420  0.35401284     0.77200
C129        C  0.62065457  0.00550935  0.25146949    -0.02400
C130        C  0.50481319  0.25025993  0.87019948    -0.02400
Zn131      Zn  0.28372846  0.22184250  0.78834936     1.49700
Zn132      Zn  0.24373295  0.22357343  0.70879478     1.49400
Zn133      Zn  0.20861521  0.26735459  0.78736951     1.49100
Zn134      Zn  0.28846050  0.30018974  0.74446412     1.49500
O135        O  0.25468961  0.25552839  0.75561107    -1.84100
O136        O  0.26759176  0.16654554  0.77897727    -0.74700
O137        O  0.18433235  0.22148486  0.70230867    -0.74500
O138        O  0.21183311  0.23897867  0.84244091    -0.74000
O139        O  0.27065700  0.16743617  0.71370183    -0.74700
O140        O  0.27713564  0.23222622  0.84549169    -0.74300
O141        O  0.15994044  0.25511408  0.75396799    -0.74900
O142        O  0.26052635  0.35043257  0.76381903    -0.74300
O143        O  0.25796472  0.25612031  0.65981131    -0.75000
O144        O  0.20404572  0.32678047  0.78950713    -0.74400
O145        O  0.28596466  0.30987086  0.68612097    -0.74900
O146        O  0.34638896  0.28957918  0.76362046    -0.74800
O147        O  0.34060061  0.22570230  0.77801619    -0.74600
C148        C  0.27564455  0.14918363  0.74655136     0.77200
C149        C  0.15573282  0.23969584  0.71957776     0.77700
C150        C  0.24339542  0.22894734  0.86157608     0.76600
C151        C  0.22493978  0.35530043  0.77636794     0.77000
C152        C  0.27082262  0.29172315  0.65664595     0.78100
C153        C  0.36202527  0.25616990  0.77376394     0.77200
C154        C  0.00837962  0.26758209  0.62835122    -0.02400
C155        C  0.00692088  0.23552055  0.12376898    -0.02400
Zn156      Zn  0.97162105  0.94715550  0.96855564     1.49700
Zn157      Zn  0.97080193  0.99385266  0.04901391     1.49400
Zn158      Zn  0.05176514  0.95278695  0.01351854     1.49100
Zn159      Zn  0.01113634  0.02987392  0.96907739     1.49500
O160        O  0.00196782  0.98179676  0.00083729    -1.84100
O161        O  0.92276547  0.93167840  0.99260149    -0.74700
O162        O  0.00300165  0.97777062  0.09741290    -0.74500
O163        O  0.05659589  0.89653965  0.98738785    -0.74000
O164        O  0.91454654  0.96692574  0.04763943    -0.74700
O165        O  0.99862378  0.89847238  0.95615759    -0.74300
O166        O  0.05866032  0.95133668  0.07253802    -0.74900
O167        O  0.07091652  0.03766551  0.96504149    -0.74300
O168        O  0.97002106  0.05408263  0.05727122    -0.75000
O169        O  0.09769129  0.98787810  0.99953418    -0.74400
O170        O  0.99750907  0.07855958  0.00259710    -0.74900
O171        O  0.98067394  0.02930373  0.91433383    -0.74800
O172        O  0.95571622  0.96873002  0.91790854    -0.74600
C173        C  0.90219745  0.94117426  0.02233121     0.77200
C174        C  0.03834979  0.96432358  0.10177987     0.77700
C175        C  0.03083077  0.88091533  0.96429617     0.76600
C176        C  0.10065699  0.02133487  0.98240298     0.77000
C177        C  0.98407374  0.08309476  0.03761818     0.78100
C178        C  0.96005376  0.00088479  0.89939582     0.77200
Zn179      Zn  0.24079940  0.28671352  0.20454642     1.49700
Zn180      Zn  0.28552110  0.28138309  0.28282382     1.49400
Zn181      Zn  0.20226578  0.24395485  0.28482384     1.49100
Zn182      Zn  0.27874097  0.20317806  0.23798481     1.49500
O183        O  0.25037145  0.25278614  0.25159828    -1.84100
O184        O  0.27248292  0.34133660  0.20431850    -0.74700
O185        O  0.26437421  0.29570204  0.33198033    -0.74500
O186        O  0.15519895  0.25911684  0.24977484    -0.74000
O187        O  0.30097576  0.33035181  0.26151530    -0.74700
O188        O  0.18120401  0.29313324  0.19949711    -0.74300
O189        O  0.20394863  0.27422063  0.34106642    -0.74900
O190        O  0.24463260  0.15745229  0.25546868    -0.74300
O191        O  0.33409023  0.25530677  0.29487171    -0.75000
O192        O  0.19356415  0.18351249  0.28891748    -0.74400
O193        O  0.33654932  0.19846873  0.26174983    -0.74900
O194        O  0.27559607  0.19646654  0.17860291    -0.74800
O195        O  0.25100956  0.25321339  0.15496264    -0.74600
C196        C  0.29634610  0.35207159  0.23195643     0.77200
C197        C  0.23436051  0.29362873  0.35353372     0.77700
C198        C  0.15191127  0.27588216  0.21606357     0.76600
C199        C  0.21142008  0.15353857  0.27313275     0.77000
C200        C  0.35196941  0.22358899  0.28581527     0.78100
C201        C  0.26164476  0.21696166  0.14997001     0.77200
C202        C  0.11995704  0.00323189  0.25278966    -0.02400
Zn203      Zn  0.96386896  0.04118580  0.54109021     1.49700
Zn204      Zn  0.04549634  0.04257868  0.49563498     1.49400
Zn205      Zn  0.00910477  0.96151644  0.53272687     1.49100
Zn206      Zn  0.96649035  0.00368114  0.45634763     1.49500
O207        O  0.99694981  0.01162622  0.50572032    -1.84100
O208        O  0.98287298  0.09496852  0.54945153    -0.74700
O209        O  0.09451050  0.01056227  0.51108520    -0.74500
O210        O  0.98401920  0.95739707  0.58930672    -0.74000
O211        O  0.04289980  0.09852381  0.52226189    -0.74700
O212        O  0.95880447  0.01841348  0.59368178    -0.74300
O213        O  0.06870394  0.95353760  0.53233372    -0.74900
O214        O  0.96275154  0.94471854  0.44562727    -0.74300
O215        O  0.05481933  0.04493743  0.43643832    -0.75000
O216        O  0.99387183  0.91651529  0.49639901    -0.74400
O217        O  0.00056421  0.01928129  0.40899897    -0.74900
O218        O  0.91086367  0.03213294  0.45794765    -0.74800
O219        O  0.91000575  0.04840731  0.52173982    -0.74600
C220        C  0.01419380  0.11407889  0.54208142     0.77200
C221        C  0.09823049  0.97420168  0.52110809     0.77700
C222        C  0.96586443  0.98483101  0.60887382     0.76600
C223        C  0.97859200  0.91436243  0.46189614     0.77000
C224        C  0.03612812  0.03215222  0.40612246     0.78100
C225        C  0.89345657  0.04744916  0.48819834     0.77200
C226        C  0.24151790  0.12347990  0.00218724    -0.02400
Zn227      Zn  0.45096035  0.96817179  0.99301596     1.49700
Zn228      Zn  0.52941171  0.00892040  0.95454413     1.49400
Zn229      Zn  0.48575997  0.05009080  0.02993125     1.49100
Zn230      Zn  0.52961644  0.97224928  0.03617255     1.49500
O231        O  0.49701195  0.00132677  0.00154180    -1.84100
O232        O  0.44504743  0.96034392  0.93448299    -0.74700
O233        O  0.53343431  0.06886173  0.94408603    -0.74500
O234        O  0.42631134  0.05613523  0.03352263    -0.74000
O235        O  0.49659067  0.99082014  0.90729414    -0.74700
O236        O  0.40100673  0.00130781  0.00635100    -0.74300
O237        O  0.49899786  0.09591976  0.99401141    -0.74900
O238        O  0.52073812  0.98597832  0.09227619    -0.74300
O239        O  0.58321144  0.97730525  0.96122510    -0.75000
O240        O  0.51542230  0.05129774  0.08431471    -0.74400
O241        O  0.58575641  0.98350598  0.02605871    -0.74900
O242        O  0.52268296  0.91411511  0.03045340    -0.74800
O243        O  0.45730051  0.91380014  0.02185822    -0.74600
C244        C  0.46264703  0.97415628  0.90425945     0.77200
C245        C  0.51616537  0.09876856  0.96055108     0.77700
C246        C  0.39663748  0.03654909  0.02045328     0.76600
C247        C  0.52489568  0.02110859  0.10540439     0.77000
C248        C  0.60117933  0.97114052  0.99419171     0.78100
C249        C  0.48979165  0.89610383  0.03174918     0.77200
Zn250      Zn  0.46296586  0.96847964  0.53098590     1.49700
Zn251      Zn  0.50174270  0.05290388  0.53271322     1.49400
Zn252      Zn  0.54610270  0.97561542  0.49212895     1.49100
Zn253      Zn  0.46392006  0.01182684  0.45213057     1.49500
O254        O  0.49463663  0.00317672  0.50135953    -1.84100
O255        O  0.45191809  0.98989190  0.58201461    -0.74700
O256        O  0.56138800  0.06349699  0.53803316    -0.74500
O257        O  0.54679423  0.91637631  0.51269616    -0.74000
O258        O  0.47108675  0.05226891  0.58773485    -0.74700
O259        O  0.48624529  0.91684883  0.53836535    -0.74300
O260        O  0.59182618  0.00964841  0.51291157    -0.74900
O261        O  0.49872918  0.99650325  0.40545155    -0.74300
O262        O  0.48663208  0.09919609  0.49687276    -0.75000
O263        O  0.55649498  0.97880076  0.43334295    -0.74400
O264        O  0.46055593  0.07062690  0.44325514    -0.74900
O265        O  0.40752789  0.98495793  0.45009605    -0.74800
O266        O  0.41111396  0.95625330  0.50856809    -0.74600
C267        C  0.45321632  0.02183980  0.60178806     0.77200
C268        C  0.59288282  0.04505406  0.52689948     0.77700
C269        C  0.51821395  0.89870387  0.53035041     0.76600
C270        C  0.53582429  0.98833165  0.40315275     0.77000
C271        C  0.47380797  0.10117667  0.46130227     0.78100
C272        C  0.39236935  0.96312841  0.47695698     0.77200
C273        C  0.50102765  0.25000869  0.37150348    -0.02400
Zn274      Zn  0.98591507  0.49618999  0.95191600     1.49700
Zn275      Zn  0.98760389  0.46121819  0.03337277     1.49400
Zn276      Zn  0.06534883  0.45596043  0.99003758     1.49100
Zn277      Zn  0.02653873  0.53852423  0.02800446     1.49500
O278        O  0.01909332  0.48941872  0.99832601    -1.84100
O279        O  0.93117434  0.46957153  0.96000147    -0.74700
O280        O  0.99265036  0.40330647  0.02778089    -0.74500
O281        O  0.07331651  0.45274440  0.92993896    -0.74000
O282        O  0.93170270  0.47584973  0.02502917    -0.74700
O283        O  0.01670521  0.47672369  0.90416437    -0.74300
O284        O  0.05825515  0.40079664  0.02041481    -0.74900
O285        O  0.08634404  0.54526885  0.03324966    -0.74300
O286        O  0.00061459  0.47294757  0.08897816    -0.75000
O287        O  0.11302574  0.48993274  0.00669944    -0.74400
O288        O  0.99383709  0.53754512  0.08105440    -0.74900
O289        O  0.01004560  0.58469517  0.99272168    -0.74800
O290        O  0.98129497  0.55510273  0.94080341    -0.74600
C291        C  0.91365147  0.46649332  0.99340863     0.77200
C292        C  0.02543407  0.38495759  0.03185308     0.77700
C293        C  0.05252999  0.46440965  0.90035898     0.76600
C294        C  0.11646550  0.52521494  0.02093931     0.77000
C295        C  0.98867042  0.50626723  0.10181283     0.78100
C296        C  0.99412114  0.58614834  0.95845205     0.77200
Zn297      Zn  0.53421044  0.50776522  0.05023653     1.49700
Zn298      Zn  0.53586617  0.45508440  0.97490662     1.49400
Zn299      Zn  0.45465997  0.45979024  0.01849846     1.49100
Zn300      Zn  0.48877516  0.53618516  0.97118590     1.49500
O301        O  0.50255988  0.49019980  0.00440554    -1.84100
O302        O  0.59235638  0.48521478  0.05188925    -0.74700
O303        O  0.51700339  0.40036066  0.97130705    -0.74500
O304        O  0.44917744  0.46212451  0.07781628    -0.74000
O305        O  0.58941322  0.45130953  0.99558811    -0.74700
O306        O  0.50285622  0.49496542  0.09926798    -0.74300
O307        O  0.45551374  0.40140283  0.99509515    -0.74900
O308        O  0.42908678  0.54042304  0.96638733    -0.74300
O309        O  0.54291307  0.47254826  0.92129737    -0.75000
O310        O  0.40510988  0.49173492  0.00341640    -0.74400
O311        O  0.51773155  0.53376385  0.91705309    -0.74900
O312        O  0.49799497  0.58769142  0.00127516    -0.74800
O313        O  0.53254665  0.56758921  0.05352301    -0.74600
C314        C  0.60842735  0.46249093  0.02584312     0.77200
C315        C  0.48456913  0.38294091  0.97826651     0.77700
C316        C  0.46881132  0.47956902  0.10510545     0.76600
C317        C  0.40013494  0.52395979  0.98424150     0.77000
C318        C  0.53698217  0.50421200  0.90221265     0.78100
C319        C  0.51343572  0.59458260  0.03502702     0.77200
Zn320      Zn  0.96732032  0.54494255  0.46530918     1.49700
Zn321      Zn  0.97192220  0.50122175  0.54659718     1.49400
Zn322      Zn  0.01344644  0.46542241  0.46658337     1.49100
Zn323      Zn  0.04815860  0.54591472  0.51063440     1.49500
O324        O  0.00113096  0.51382630  0.49781224    -1.84100
O325        O  0.91555098  0.55110241  0.48810776    -0.74700
O326        O  0.97617546  0.44275867  0.55495382    -0.74500
O327        O  0.98577457  0.46453042  0.41032806    -0.74000
O328        O  0.91417714  0.52250470  0.54709744    -0.74700
O329        O  0.95923555  0.52508500  0.41165992    -0.74300
O330        O  0.00355307  0.41681163  0.50070780    -0.74900
O331        O  0.09643762  0.51222916  0.49724134    -0.74300
O332        O  0.00210733  0.51919931  0.59523711    -0.75000
O333        O  0.07309907  0.45967139  0.46370831    -0.74400
O334        O  0.05516011  0.54886835  0.57041069    -0.74900
O335        O  0.04650599  0.60215280  0.48379901    -0.74800
O336        O  0.98562191  0.59855794  0.45863567    -0.74600
C337        C  0.89770264  0.54287638  0.51977677     0.77200
C338        C  0.99246090  0.41374134  0.53666537     0.77700
C339        C  0.96630665  0.49282346  0.39354054     0.76600
C340        C  0.10123963  0.47807409  0.48114889     0.77000
C341        C  0.03631977  0.53457673  0.59982256     0.78100
C342        C  0.01706200  0.61777987  0.46516188     0.77200
C343        C  0.24584202  0.38124985  0.50724765    -0.02400
Zn344      Zn  0.53114200  0.52765417  0.53654147     1.49700
Zn345      Zn  0.49298601  0.44802264  0.53087668     1.49400
Zn346      Zn  0.45208934  0.52778786  0.49490426     1.49100
Zn347      Zn  0.53196478  0.49029837  0.45448467     1.49500
O348        O  0.50023910  0.49706940  0.50218633    -1.84100
O349        O  0.52245073  0.51423465  0.59210672    -0.74700
O350        O  0.43410329  0.43992007  0.53720750    -0.74500
O351        O  0.45699492  0.58481264  0.51899585    -0.74000
O352        O  0.52323014  0.44871250  0.58427681    -0.74700
O353        O  0.52131337  0.58495263  0.53310076    -0.74300
O354        O  0.40531016  0.49506973  0.51426744    -0.74900
O355        O  0.49822200  0.50810858  0.40801655    -0.74300
O356        O  0.50856561  0.40221214  0.49516013    -0.75000
O357        O  0.44219636  0.52967978  0.43650549    -0.74400
O358        O  0.53722233  0.43073780  0.44299470    -0.74900
O359        O  0.58543126  0.52142296  0.46001247    -0.74800
O360        O  0.58747317  0.51982576  0.52515916    -0.74600
C361        C  0.52955330  0.47981762  0.60532094     0.77200
C362        C  0.40304150  0.45947911  0.52729207     0.77700
C363        C  0.48841457  0.60311474  0.53047044     0.76600
C364        C  0.46194481  0.51956090  0.40586472     0.77000
C365        C  0.52362948  0.40017737  0.46062221     0.78100
C366        C  0.60321286  0.52921907  0.49272074     0.77200
C367        C  0.37892351  0.50647130  0.25173487    -0.02400
C368        C  0.00025956  0.73841462  0.87102266    -0.02400
Zn369      Zn  0.27393051  0.78445066  0.71592946     1.49700
Zn370      Zn  0.27671543  0.70812045  0.76108839     1.49400
Zn371      Zn  0.22504715  0.78544302  0.78940317     1.49100
Zn372      Zn  0.19946058  0.73745999  0.70957557     1.49500
O373        O  0.24189022  0.75188963  0.74574643    -1.84100
O374        O  0.31642128  0.75463038  0.68985110    -0.74700
O375        O  0.27229491  0.70288930  0.82066539    -0.74500
O376        O  0.25220952  0.84085460  0.78994611    -0.74000
O377        O  0.33521517  0.71801849  0.74063408    -0.74700
O378        O  0.29954968  0.82579512  0.74680157    -0.74300
O379        O  0.23423260  0.75432419  0.83988122    -0.74900
O380        O  0.14734445  0.74977493  0.73790550    -0.74300
O381        O  0.25040653  0.65644105  0.74346573    -0.75000
O382        O  0.16591827  0.78918371  0.78801006    -0.74400
O383        O  0.19747597  0.67744074  0.70916608    -0.74900
O384        O  0.20701183  0.76390272  0.65360374    -0.74800
O385        O  0.24452406  0.81289035  0.67549615    -0.74600
C386        C  0.34378892  0.73764492  0.70937463     0.77200
C387        C  0.25222903  0.72157834  0.84703952     0.77700
C388        C  0.28416071  0.84972815  0.77158877     0.76600
C389        C  0.13979503  0.76828124  0.77018407     0.77000
C390        C  0.21713057  0.64977947  0.72635273     0.78100
C391        C  0.22624700  0.79615382  0.64743875     0.77200
C392        C  0.49310855  0.75400233  0.62203617    -0.02400
C393        C  0.39215934  0.78079570  0.67558692    -0.20300
C394        C  0.38524798  0.74466886  0.69522275    -0.06800
C395        C  0.41678749  0.71718320  0.69817559     0.14100
C396        C  0.45209239  0.72421286  0.67689960    -0.20300
C397        C  0.45676876  0.75735963  0.65100012    -0.06800
C398        C  0.42707205  0.78828198  0.65404611     0.14000
C399        C  0.42888940  0.82978672  0.63706883    -0.23700
H400        H  0.36921727  0.80371236  0.67636647     0.15300
H401        H  0.47496177  0.70128132  0.67741119     0.15400
C402        C  0.41244966  0.67910331  0.72095128    -0.23600
H403        H  0.42489259  0.85184843  0.66142636     0.05600
H404        H  0.40421798  0.83427315  0.61562308     0.08800
H405        H  0.45673553  0.83777885  0.62269880     0.08800
H406        H  0.38726086  0.66160013  0.70878435     0.08800
H407        H  0.40683987  0.68604448  0.75261848     0.08800
H408        H  0.43974881  0.66029744  0.71914645     0.05600
C409        C  0.03346038  0.74133420  0.80045728    -0.20300
C410        C  0.03756187  0.73779300  0.84232701    -0.06800
C411        C  0.07737523  0.74081339  0.85772061     0.14100
C412        C  0.10822226  0.75297246  0.83315642    -0.20300
C413        C  0.10305948  0.75919332  0.79263021    -0.06800
C414        C  0.06554258  0.75169717  0.77570641     0.14000
C415        C  0.05856342  0.75685451  0.73200591    -0.23700
H416        H  0.00473730  0.73934401  0.78647897     0.15300
H417        H  0.13754758  0.75672064  0.84611969     0.15400
C418        C  0.08981195  0.73325581  0.90011595    -0.23600
H419        H  0.02687336  0.75217780  0.72388933     0.05600
H420        H  0.07668451  0.73489033  0.71506290     0.08800
H421        H  0.06682730  0.78748754  0.72316432     0.08800
H422        H  0.11429406  0.71089469  0.90061715     0.08800
H423        H  0.06650543  0.72127152  0.91921535     0.08800
H424        H  0.10080107  0.76133404  0.91369729     0.05600
C425        C  0.45404446  0.65501212  0.56888320    -0.20300
C426        C  0.48675603  0.64457367  0.54602291    -0.06800
C427        C  0.51895434  0.67144197  0.54407021     0.14100
C428        C  0.51899186  0.70565896  0.56841587    -0.20300
C429        C  0.48740829  0.71546704  0.59468892    -0.06800
C430        C  0.45205962  0.69074264  0.59055289     0.14000
C431        C  0.40951859  0.69967391  0.60301663    -0.23700
H432        H  0.42877230  0.63500292  0.56921317     0.15300
H433        H  0.54476401  0.72484271  0.56723325     0.15400
C434        C  0.55352162  0.66568624  0.51612659    -0.23600
H435        H  0.38933378  0.69530054  0.57725570     0.05600
H436        H  0.40274673  0.72998246  0.61232122     0.08800
H437        H  0.40025351  0.67856072  0.62633354     0.08800
H438        H  0.54993778  0.63977303  0.49601392     0.08800
H439        H  0.58152906  0.66211643  0.53325768     0.08800
H440        H  0.55622216  0.69239495  0.49714975     0.05600
C441        C  0.38557109  0.49746572  0.32602637    -0.20300
C442        C  0.40561339  0.50689008  0.29049745    -0.06800
C443        C  0.44519057  0.52337141  0.29478600     0.14100
C444        C  0.46190248  0.52762165  0.33289652    -0.20300
C445        C  0.44122986  0.51759916  0.36713799    -0.06800
C446        C  0.40256534  0.50185948  0.36356038     0.14000
C447        C  0.37910731  0.48813543  0.39902548    -0.23700
H448        H  0.35556145  0.48648989  0.32454998     0.15300
H449        H  0.49181609  0.53915270  0.33621496     0.15400
C450        C  0.47149314  0.53792252  0.26142440    -0.23600
H451        H  0.35038062  0.47435088  0.39035415     0.05600
H452        H  0.37201786  0.51382832  0.41866586     0.08800
H453        H  0.39650687  0.46546378  0.41561450     0.08800
H454        H  0.45577688  0.55809256  0.24090865     0.08800
H455        H  0.48512708  0.51249957  0.24537175     0.08800
H456        H  0.49707068  0.55548182  0.27270955     0.05600
C457        C  0.32154789  0.38182696  0.51475455    -0.20300
C458        C  0.28619513  0.40513137  0.51341067    -0.06800
C459        C  0.29058681  0.44668892  0.52442363     0.14100
C460        C  0.32903513  0.46262810  0.52957886    -0.20300
C461        C  0.36356688  0.43929161  0.52727271    -0.06800
C462        C  0.35952869  0.39788703  0.52060665     0.14000
C463        C  0.39496587  0.37002657  0.51789580    -0.23700
H464        H  0.31952175  0.35007367  0.51002217     0.15300
H465        H  0.33230767  0.49418871  0.53567112     0.15400
C466        C  0.25697996  0.47583006  0.53333422    -0.23600
H467        H  0.38604738  0.33887377  0.51134283     0.05600
H468        H  0.41124825  0.36974426  0.54649327     0.08800
H469        H  0.41507268  0.37952000  0.49372396     0.08800
H470        H  0.23494004  0.46346122  0.55398791     0.08800
H471        H  0.24283984  0.48655427  0.50591272     0.08800
H472        H  0.26790675  0.50321512  0.54831622     0.05600
C473        C  0.16912865  0.45635658  0.46119876    -0.20300
C474        C  0.13857159  0.45611325  0.48876626    -0.06800
C475        C  0.14298740  0.43369365  0.52366337     0.14100
C476        C  0.17780402  0.41117416  0.52984830    -0.20300
C477        C  0.20961237  0.41072630  0.50241085    -0.06800
C478        C  0.20476458  0.43519692  0.46763762     0.14000
C479        C  0.23652196  0.44192343  0.43680333    -0.23700
H480        H  0.16548410  0.47399859  0.43465215     0.15300
H481        H  0.17868842  0.39259344  0.55568037     0.15400
C482        C  0.11014547  0.43251023  0.55409675    -0.23600
H483        H  0.23911714  0.47430739  0.43085338     0.05600
H484        H  0.22824135  0.42657787  0.40880592     0.08800
H485        H  0.26647787  0.43248471  0.44597423     0.08800
H486        H  0.08269117  0.42032888  0.54046079     0.08800
H487        H  0.10394147  0.46302358  0.56547424     0.08800
H488        H  0.11812928  0.41349524  0.57971842     0.05600
C489        C  0.43248666  0.47324167  0.21045351    -0.20300
C490        C  0.40592200  0.50657609  0.21376886    -0.06800
C491        C  0.40370461  0.53247048  0.18018137     0.14100
C492        C  0.42438517  0.52171898  0.14538446    -0.20300
C493        C  0.44871571  0.48775993  0.14293323    -0.06800
C494        C  0.45362241  0.46374468  0.17601946     0.14000
C495        C  0.48064210  0.42774995  0.17482843    -0.23700
H496        H  0.43710225  0.45410148  0.23560753     0.15300
H497        H  0.42169085  0.54024874  0.11938750     0.15400
C498        C  0.38036375  0.57104188  0.17838708    -0.23600
H499        H  0.48104443  0.41181716  0.20351945     0.05600
H500        H  0.51152454  0.43706548  0.16802740     0.08800
H501        H  0.47030380  0.40668572  0.15158588     0.08800
H502        H  0.34907803  0.56730649  0.18745933     0.08800
H503        H  0.37912218  0.58313797  0.14789273     0.08800
H504        H  0.39544399  0.59417415  0.19627007     0.05600
C505        C  0.96699926  0.65393225  0.94477802    -0.20300
C506        C  0.99472726  0.62402543  0.93649831    -0.06800
C507        C  0.02337958  0.63028713  0.90694436     0.14100
C508        C  0.02378658  0.66629174  0.88637847    -0.20300
C509        C  0.99786856  0.69858787  0.89578710    -0.06800
C510        C  0.96768828  0.69069328  0.92495238     0.14000
C511        C  0.93533124  0.71950966  0.93697986    -0.23700
H512        H  0.94452486  0.64858776  0.96710528     0.15300
H513        H  0.04515991  0.66848771  0.86273322     0.15400
C514        C  0.05457352  0.59918470  0.89766028    -0.23600
H515        H  0.93602096  0.72409154  0.96955622     0.05600
H516        H  0.90584939  0.70739766  0.92840630     0.08800
H517        H  0.93858524  0.74877401  0.92377932     0.08800
H518        H  0.04015096  0.57121016  0.88769952     0.08800
H519        H  0.07246912  0.59358699  0.92471283     0.08800
H520        H  0.07526685  0.60875615  0.87399152     0.05600
C521        C  0.53758385  0.29575903  0.41888224    -0.20300
C522        C  0.50226393  0.29017097  0.39592694    -0.06800
C523        C  0.47460954  0.32325387  0.39497206     0.14100
C524        C  0.48389924  0.35850599  0.41588624    -0.20300
C525        C  0.51880013  0.36269213  0.43807087    -0.06800
C526        C  0.54575876  0.33088749  0.44004788     0.14000
C527        C  0.58299151  0.33389074  0.46471105    -0.23700
H528        H  0.55894699  0.27155025  0.42107047     0.15300
H529        H  0.46314271  0.38343126  0.41552701     0.15400
C530        C  0.43541573  0.32430225  0.37289214    -0.23600
H531        H  0.60115843  0.30614206  0.46313792     0.05600
H532        H  0.57491672  0.33936420  0.49613948     0.08800
H533        H  0.60147277  0.35888790  0.45403485     0.08800
H534        H  0.41287163  0.30673242  0.38878622     0.08800
H535        H  0.43852640  0.31480831  0.34172419     0.08800
H536        H  0.42266212  0.35489431  0.37159172     0.05600
C537        C  0.48438523  0.83449530  0.53759617    -0.20300
C538        C  0.51926554  0.85656870  0.54318378    -0.06800
C539        C  0.54851437  0.84156130  0.56858515     0.14100
C540        C  0.54011980  0.80766531  0.59122762    -0.20300
C541        C  0.50184226  0.78892032  0.59167190    -0.06800
C542        C  0.47559384  0.80057301  0.56015212     0.14000
C543        C  0.43779979  0.77911122  0.54939610    -0.23700
H544        H  0.46260187  0.84540956  0.51647710     0.15300
H545        H  0.56447871  0.79675732  0.60894787     0.15400
C546        C  0.58794359  0.86220880  0.57322244    -0.23600
H547        H  0.44459469  0.74867802  0.53858753     0.05600
H548        H  0.42151134  0.79392248  0.52487653     0.08800
H549        H  0.41709987  0.77888578  0.57447559     0.08800
H550        H  0.58315850  0.89309209  0.58425761     0.08800
H551        H  0.60333389  0.86308156  0.54419338     0.08800
H552        H  0.60777273  0.84662295  0.59450982     0.05600
C553        C  0.47893479  0.17512602  0.45973890    -0.20300
C554        C  0.47875558  0.13901259  0.43899368    -0.06800
C555        C  0.48815445  0.13931545  0.39822996     0.14100
C556        C  0.49961152  0.17496786  0.38047572    -0.20300
C557        C  0.49887991  0.21247445  0.40014601    -0.06800
C558        C  0.48647610  0.21189308  0.44121920     0.14000
C559        C  0.47757773  0.24808099  0.46682399    -0.23700
H560        H  0.47154526  0.17459260  0.49094887     0.15300
H561        H  0.50682706  0.17398260  0.34934695     0.15400
C562        C  0.48567736  0.10253790  0.37232972    -0.23600
H563        H  0.46300808  0.24000220  0.49511192     0.05600
H564        H  0.45624946  0.26856079  0.45230347     0.08800
H565        H  0.50533090  0.26305290  0.47584016     0.08800
H566        H  0.45446275  0.09192819  0.37131258     0.08800
H567        H  0.50520395  0.07862804  0.38380354     0.08800
H568        H  0.49495481  0.10836452  0.34138295     0.05600
C569        C  0.33293259  0.04963450  0.98436527    -0.20300
C570        C  0.35714454  0.05733667  0.01743664    -0.06800
C571        C  0.34640989  0.08944032  0.04234613     0.14100
C572        C  0.31151860  0.11116723  0.03452134    -0.20300
C573        C  0.28365808  0.10090520  0.00421310    -0.06800
C574        C  0.29796190  0.07192129  0.97612496     0.14000
C575        C  0.27912015  0.06507405  0.93609358    -0.23700
H576        H  0.34256970  0.02709127  0.96347926     0.15300
H577        H  0.30738076  0.13743859  0.05252168     0.15400
C578        C  0.37131207  0.10144936  0.07770286    -0.23600
H579        H  0.29746825  0.04480314  0.91731598     0.05600
H580        H  0.27674790  0.09338222  0.91966487     0.08800
H581        H  0.25002938  0.05054451  0.93862371     0.08800
H582        H  0.39989238  0.11442235  0.06788013     0.08800
H583        H  0.37702435  0.07516270  0.09669182     0.08800
H584        H  0.35615886  0.12437680  0.09628496     0.05600
C585        C  0.03512580  0.03120305  0.33225023    -0.20300
C586        C  0.05721607  0.02870512  0.36715271    -0.06800
C587        C  0.09814219  0.01903317  0.36416006     0.14100
C588        C  0.11505908  0.01117069  0.32685942    -0.20300
C589        C  0.09340591  0.01250762  0.29078933    -0.06800
C590        C  0.05220616  0.02582541  0.29435463     0.14000
C591        C  0.02338161  0.03763518  0.26191002    -0.23700
H592        H  0.00382063  0.03917348  0.33459487     0.15300
H593        H  0.14650735  0.00409858  0.32599743     0.15400
C594        C  0.12443209  0.01535258  0.40022645    -0.23600
H595        H  0.01118124  0.06787862  0.26821320     0.05600
H596        H  0.99787625  0.01674631  0.26142685     0.08800
H597        H  0.03554429  0.03920931  0.23215003     0.08800
H598        H  0.11199109  0.99294533  0.42064512     0.08800
H599        H  0.12663984  0.04461653  0.41550977     0.08800
H600        H  0.15517673  0.00564767  0.39255798     0.05600
C601        C  0.30723374  0.42275733  0.21062319    -0.20300
C602        C  0.31946584  0.38990736  0.23273301    -0.06800
C603        C  0.35303699  0.39424474  0.25815665     0.14100
C604        C  0.36918268  0.43186005  0.26474350    -0.20300
C605        C  0.35598814  0.46620340  0.24465822    -0.06800
C606        C  0.32624109  0.46006387  0.21433887     0.14000
C607        C  0.31383685  0.49139764  0.18486888    -0.23700
H608        H  0.28282275  0.41906151  0.18994695     0.15300
H609        H  0.39425410  0.43345022  0.28467402     0.15400
C610        C  0.37399386  0.35931740  0.27764811    -0.23600
H611        H  0.33855009  0.49748788  0.16439258     0.05600
H612        H  0.30326272  0.51893954  0.19942583     0.08800
H613        H  0.28885042  0.48120190  0.16586565     0.08800
H614        H  0.37994343  0.33549492  0.25543379     0.08800
H615        H  0.35608149  0.34756677  0.30239347     0.08800
H616        H  0.40321957  0.36779185  0.29051061     0.05600
C617        C  0.20517068  0.31575265  0.41881038    -0.20300
C618        C  0.23735311  0.31509090  0.39265744    -0.06800
C619        C  0.27271353  0.33587429  0.40417104     0.14100
C620        C  0.27427135  0.35591696  0.44047618    -0.20300
C621        C  0.24287756  0.35585981  0.46795349    -0.06800
C622        C  0.20733010  0.33500518  0.45605649     0.14000
C623        C  0.17124021  0.33029719  0.48215742    -0.23700
H624        H  0.17813157  0.30034112  0.41050371     0.15300
H625        H  0.30053714  0.37308079  0.44608690     0.15400
C626        C  0.30978618  0.33873831  0.37872054    -0.23600
H627        H  0.16013106  0.29925942  0.48019404     0.05600
H628        H  0.14716387  0.35077095  0.47225061     0.08800
H629        H  0.17772311  0.33523364  0.51374760     0.08800
H630        H  0.30254199  0.35420231  0.35067985     0.08800
H631        H  0.32242050  0.30864752  0.37289570     0.08800
H632        H  0.33397579  0.35610348  0.39299809     0.05600
C633        C  0.42580895  0.22140326  0.28424473    -0.20300
C634        C  0.39065269  0.21844609  0.30580783    -0.06800
C635        C  0.39212716  0.22355930  0.34705422     0.14100
C636        C  0.42724693  0.23640862  0.36493300    -0.20300
C637        C  0.46336636  0.24228019  0.34410269    -0.06800
C638        C  0.46261111  0.23050300  0.30263654     0.14000
C639        C  0.49859772  0.22433780  0.27631700    -0.23700
H640        H  0.42424985  0.21724410  0.25243403     0.15300
H641        H  0.42658286  0.24103656  0.39654292     0.15400
C642        C  0.35621048  0.21553051  0.37263381    -0.23600
H643        H  0.49071959  0.20856165  0.24840912     0.05600
H644        H  0.52128483  0.20507238  0.29044077     0.08800
H645        H  0.51092448  0.25297878  0.26659972     0.08800
H646        H  0.34620412  0.18445534  0.36763545     0.08800
H647        H  0.33138637  0.23622834  0.36564517     0.08800
H648        H  0.36305135  0.21909256  0.40462002     0.05600
C649        C  0.14921272  0.11562200  0.26306072    -0.20300
C650        C  0.19035401  0.11446782  0.26974500    -0.06800
C651        C  0.21034515  0.07795249  0.26258216     0.14100
C652        C  0.18838102  0.04403678  0.25146777    -0.20300
C653        C  0.14612129  0.04318610  0.24986497    -0.06800
C654        C  0.12829637  0.08209743  0.24910045     0.14000
C655        C  0.09195731  0.09205923  0.22516176    -0.23700
H656        H  0.13409250  0.14430215  0.26331748     0.15300
H657        H  0.20575110  0.02005887  0.23936683     0.15400
C658        C  0.25502843  0.07403498  0.26605098    -0.23600
H659        H  0.09851406  0.11756358  0.20548488     0.05600
H660        H  0.06729343  0.10157073  0.24482944     0.08800
H661        H  0.08378594  0.06805121  0.20446628     0.08800
H662        H  0.26497117  0.08556782  0.29527985     0.08800
H663        H  0.26986684  0.09053512  0.24196959     0.08800
H664        H  0.26501397  0.04248731  0.26367992     0.05600
C665        C  0.24583102  0.15487431  0.11358566    -0.20300
C666        C  0.25320546  0.19585246  0.11164982    -0.06800
C667        C  0.24779874  0.21488943  0.07480287     0.14100
C668        C  0.23908706  0.19188112  0.04076933    -0.20300
C669        C  0.23762190  0.14962523  0.04138112    -0.06800
C670        C  0.23724396  0.13172664  0.07993858     0.14000
C671        C  0.22977747  0.08794406  0.08693239    -0.23700
H672        H  0.24665212  0.14048138  0.14218220     0.15300
H673        H  0.23382627  0.20773549  0.01366820     0.15400
C674        C  0.25236288  0.25926475  0.07049885    -0.23600
H675        H  0.19882571  0.08040887  0.07847617     0.05600
H676        H  0.23278186  0.07986112  0.11861491     0.08800
H677        H  0.25144674  0.06908916  0.07062763     0.08800
H678        H  0.28222661  0.26839900  0.08118902     0.08800
H679        H  0.22897880  0.27516966  0.08761797     0.08800
H680        H  0.24947876  0.26875587  0.03920449     0.05600
C681        C  0.01449329  0.77398041  0.93872757    -0.20300
C682        C  0.00920937  0.77647204  0.89696115    -0.06800
C683        C  0.01905720  0.81407116  0.87926341     0.14100
C684        C  0.03443308  0.84495946  0.90251002    -0.20300
C685        C  0.03628037  0.84265941  0.94364320    -0.06800
C686        C  0.02669613  0.80664596  0.96199334     0.14000
C687        C  0.02840351  0.80308907  0.00636282    -0.23700
H688        H  0.00980645  0.74644078  0.95403350     0.15300
H689        H  0.04046489  0.87338724  0.88867515     0.15400
C690        C  0.01213199  0.82483830  0.83643777    -0.23600
H691        H  0.02028796  0.77276538  0.01632382     0.05600
H692        H  0.00735897  0.82467358  0.02023279     0.08800
H693        H  0.05907558  0.80945932  0.01683129     0.08800
H694        H  0.99540509  0.85346578  0.83479080     0.08800
H695        H  0.99406077  0.80324750  0.81993266     0.08800
H696        H  0.04117138  0.82862844  0.82131564     0.05600
C697        C  0.13239284  0.08607107  0.99455849    -0.20300
C698        C  0.13751162  0.04508542  0.98820410    -0.06800
C699        C  0.17585437  0.02834717  0.99371934     0.14100
C700        C  0.20827827  0.05356281  0.00184322    -0.20300
C701        C  0.20430607  0.09566772  0.00276429    -0.06800
C702        C  0.16443090  0.11137257  0.00291943     0.14000
C703        C  0.15423218  0.15463343  0.01122276    -0.23700
H704        H  0.10252516  0.09854055  0.99375618     0.15300
H705        H  0.23692120  0.03972332  0.00656541     0.15400
C706        C  0.18330223  0.98415486  0.98988071    -0.23600
H707        H  0.12199091  0.16103527  0.00713460     0.05600
H708        H  0.17029412  0.17481221  0.99119033     0.08800
H709        H  0.16099119  0.16209918  0.04249781     0.08800
H710        H  0.17258275  0.97340648  0.96063302     0.08800
H711        H  0.16777164  0.96810008  0.01384345     0.08800
H712        H  0.21549067  0.97664092  0.99218659     0.05600
C713        C  0.06075353  0.97484306  0.21194571    -0.20300
C714        C  0.09813048  0.99436238  0.21225888    -0.06800
C715        C  0.11783095  0.99603248  0.17457760     0.14100
C716        C  0.09763773  0.98455064  0.13985138    -0.20300
C717        C  0.05887141  0.96961634  0.14042380    -0.06800
C718        C  0.04045555  0.96393660  0.17714451     0.14000
C719        C  0.99985076  0.94536049  0.18002162    -0.23700
H720        H  0.04588928  0.96904043  0.23927479     0.15300
H721        H  0.11215517  0.98816232  0.11146944     0.15400
C722        C  0.16053108  0.00832009  0.16920298    -0.23600
H723        H  0.99080544  0.94078724  0.21124813     0.05600
H724        H  0.00008149  0.91589029  0.16490486     0.08800
H725        H  0.97715421  0.96494577  0.16612759     0.08800
H726        H  0.18018403  0.98897408  0.18714981     0.08800
H727        H  0.16417189  0.04033499  0.17620398     0.08800
H728        H  0.17074346  0.00464212  0.13813200     0.05600
C729        C  0.03230461  0.31039797  0.03584401    -0.20300
C730        C  0.02366136  0.34679626  0.05416106    -0.06800
C731        C  0.00796082  0.34646180  0.09285005     0.14100
C732        C  0.00125373  0.31027257  0.11193549    -0.20300
C733        C  0.00844645  0.27255097  0.09431964    -0.06800
C734        C  0.02546631  0.27337117  0.05474968     0.14000
C735        C  0.03780015  0.23708232  0.03065129    -0.23700
H736        H  0.04379234  0.31105910  0.00590160     0.15300
H737        H  0.99060896  0.31172557  0.14188209     0.15400
C738        C  0.99886568  0.38459841  0.11505168    -0.23600
H739        H  0.05827607  0.21720283  0.04694967     0.05600
H740        H  0.05423719  0.24534179  0.00345862     0.08800
H741        H  0.01134091  0.22087794  0.01995268     0.08800
H742        H  0.97435183  0.40099366  0.10018478     0.08800
H743        H  0.02598765  0.40325465  0.11643449     0.08800
H744        H  0.98913993  0.37907277  0.14591753     0.05600
C745        C  0.07774836  0.27135514  0.21191780    -0.20300
C746        C  0.11458867  0.27007837  0.19292522    -0.06800
C747        C  0.11581048  0.25813608  0.15283892     0.14100
C748        C  0.08065268  0.24757633  0.13339294    -0.20300
C749        C  0.04322414  0.24532898  0.15217035    -0.06800
C750        C  0.04187836  0.26120681  0.19234929     0.14000
C751        C  0.00467021  0.27030282  0.21635803    -0.23700
H752        H  0.07709323  0.28088529  0.24264078     0.15300
H753        H  0.08272927  0.24056744  0.10239534     0.15400
C754        C  0.15438475  0.25416572  0.13030238    -0.23600
H755        H  0.01103661  0.29121918  0.24115809     0.05600
H756        H  0.99340942  0.24319617  0.23073337     0.08800
H757        H  0.98117789  0.28549259  0.19924098     0.08800
H758        H  0.17446862  0.23304056  0.14582678     0.08800
H759        H  0.16863094  0.28371348  0.12768378     0.08800
H760        H  0.14992193  0.24241316  0.09981862     0.05600
C761        C  0.02460093  0.12589747  0.08134770    -0.20300
C762        C  0.99035358  0.12176250  0.05806736    -0.06800
C763        C  0.96446156  0.15424531  0.05414526     0.14100
C764        C  0.97263438  0.18971514  0.07478113    -0.20300
C765        C  0.00675150  0.19501224  0.09954233    -0.06800
C766        C  0.03383461  0.16152891  0.10185802     0.14000
C767        C  0.07209445  0.16024296  0.12544598    -0.23700
H768        H  0.04471802  0.10053821  0.08319590     0.15300
H769        H  0.95198500  0.21428591  0.07100564     0.15400
C770        C  0.92807202  0.15145024  0.02824614    -0.23600
H771        H  0.08338379  0.12928137  0.12896377     0.05600
H772        H  0.06829663  0.17173476  0.15583569     0.08800
H773        H  0.09593844  0.17596563  0.10945780     0.08800
H774        H  0.90856950  0.12723869  0.03891761     0.08800
H775        H  0.93714897  0.14488478  0.99728816     0.08800
H776        H  0.91056243  0.17964615  0.02841396     0.05600
C777        C  0.01555862  0.34198318  0.62064752    -0.20300
C778        C  0.01431256  0.30463558  0.60117150    -0.06800
C779        C  0.01823622  0.30545696  0.55892927     0.14100
C780        C  0.00885208  0.34093074  0.53877490    -0.20300
C781        C  0.00196918  0.37686093  0.55916732    -0.06800
C782        C  0.00985406  0.37786290  0.60047656     0.14000
C783        C  0.01223996  0.41616166  0.62412442    -0.23700
H784        H  0.01778343  0.34305798  0.65253658     0.15300
H785        H  0.00834880  0.34071820  0.50669887     0.15400
C786        C  0.03531675  0.27238772  0.53350198    -0.23600
H787        H  0.02210032  0.41089687  0.65506446     0.05600
H788        H  0.98257542  0.43081032  0.62572615     0.08800
H789        H  0.03418355  0.43643378  0.61044110     0.08800
H790        H  0.01204560  0.26030055  0.51350153     0.08800
H791        H  0.04956110  0.24814132  0.55023571     0.08800
H792        H  0.05947185  0.28460845  0.51483677     0.05600
C793        C  0.98468362  0.18065972  0.55293815    -0.20300
C794        C  0.01628406  0.15417012  0.55994326    -0.06800
C795        C  0.04152888  0.16138301  0.59212345     0.14100
C796        C  0.03559701  0.19559803  0.61535703    -0.20300
C797        C  0.00748179  0.22609183  0.60558348    -0.06800
C798        C  0.97907069  0.21569587  0.57557863     0.14000
C799        C  0.94206295  0.23972035  0.56686259    -0.23700
H800        H  0.96344703  0.17313164  0.52997758     0.15300
H801        H  0.05315558  0.19731063  0.64201539     0.15400
C802        C  0.07359118  0.13182682  0.60339251    -0.23600
H803        H  0.92280504  0.22481544  0.54458558     0.05600
H804        H  0.94980738  0.26859818  0.55396998     0.08800
H805        H  0.92361811  0.24319504  0.59376782     0.08800
H806        H  0.09475570  0.12795586  0.57843047     0.08800
H807        H  0.06004958  0.10265284  0.61042310     0.08800
H808        H  0.09082876  0.14187646  0.62964801     0.05600
C809        C  0.08323744  0.25743688  0.71773395    -0.20300
C810        C  0.11826184  0.24768344  0.69706198    -0.06800
C811        C  0.11881993  0.25404883  0.65560841     0.14100
C812        C  0.08365036  0.26499540  0.63614264    -0.20300
C813        C  0.04662917  0.26874184  0.65584087    -0.06800
C814        C  0.04850592  0.27077492  0.69818056     0.14000
C815        C  0.01855035  0.29189834  0.72431866    -0.23700
H816        H  0.08372640  0.25729706  0.74981603     0.15300
H817        H  0.08450835  0.26752107  0.60434077     0.15400
C818        C  0.15630674  0.25051242  0.63110113    -0.23600
H819        H  0.03425470  0.31384347  0.74339714     0.05600
H820        H  0.00366120  0.27021051  0.74391041     0.08800
H821        H  0.99634544  0.30963659  0.70796111     0.08800
H822        H  0.16761418  0.21938039  0.63134819     0.08800
H823        H  0.17920905  0.27112802  0.64285978     0.08800
H824        H  0.15114694  0.25850690  0.59965742     0.05600
C825        C  0.26285706  0.29264252  0.58329486    -0.20300
C826        C  0.26459646  0.31387415  0.61883651    -0.06800
C827        C  0.25647100  0.35527771  0.61802390     0.14100
C828        C  0.24669521  0.37365919  0.58213051    -0.20300
C829        C  0.24601712  0.35345345  0.54521695    -0.06800
C830        C  0.25558533  0.31119642  0.54655347     0.14000
C831        C  0.26106724  0.28376164  0.51116096    -0.23700
H832        H  0.26872967  0.26086559  0.58428776     0.15300
H833        H  0.24172515  0.40538370  0.58275576     0.15400
C834        C  0.25771879  0.38096237  0.65482423    -0.23600
H835        H  0.27224743  0.25380037  0.51966431     0.05600
H836        H  0.28375201  0.29507764  0.49053806     0.08800
H837        H  0.23235378  0.27791740  0.49648498     0.08800
H838        H  0.28848259  0.38166434  0.66684272     0.08800
H839        H  0.23714612  0.36899095  0.67726018     0.08800
H840        H  0.24856407  0.41224272  0.64898401     0.05600
C841        C  0.27214309  0.17786045  0.95875822    -0.20300
C842        C  0.24156893  0.14929436  0.96287893    -0.06800
C843        C  0.21361851  0.14720983  0.93020359     0.14100
C844        C  0.21178647  0.17813032  0.90247966    -0.20300
C845        C  0.24132489  0.20680178  0.89970982    -0.06800
C846        C  0.27254990  0.20616089  0.92801186     0.14000
C847        C  0.30597441  0.23589372  0.92686313    -0.23700
H848        H  0.29555188  0.17887626  0.98081881     0.15300
H849        H  0.18958388  0.17664961  0.87912759     0.15400
C850        C  0.18831056  0.11212183  0.91776852    -0.23600
H851        H  0.32565121  0.23343036  0.95319377     0.05600
H852        H  0.29351911  0.26660742  0.92633224     0.08800
H853        H  0.32490331  0.23075204  0.90043809     0.08800
H854        H  0.15626035  0.11976591  0.92102940     0.08800
H855        H  0.19492022  0.08401745  0.93238395     0.08800
H856        H  0.19378476  0.10518154  0.88601344     0.05600
C857        C  0.45099838  0.33223322  0.93650469    -0.20300
C858        C  0.48165437  0.34161026  0.96262914    -0.06800
C859        C  0.51411873  0.31479195  0.96534959     0.14100
C860        C  0.51911550  0.28478770  0.93665319    -0.20300
C861        C  0.49232875  0.27980466  0.90486165    -0.06800
C862        C  0.45401715  0.29934662  0.91046454     0.14000
C863        C  0.41433959  0.28637007  0.89367097    -0.23700
H864        H  0.42437015  0.35072693  0.93633104     0.15300
H865        H  0.54535499  0.26633385  0.93853743     0.15400
C866        C  0.54443389  0.31736029  0.99791817    -0.23600
H867        H  0.39239499  0.28430513  0.91813785     0.05600
H868        H  0.41409124  0.25666044  0.87995252     0.08800
H869        H  0.40302867  0.30890627  0.87248897     0.08800
H870        H  0.53673929  0.34075188  0.01999045     0.08800
H871        H  0.57411963  0.32331082  0.98494783     0.08800
H872        H  0.54580054  0.28854355  0.01380211     0.05600
C873        C  0.47591211  0.19162307  0.90903429    -0.20300
C874        C  0.51038141  0.20878274  0.89230677    -0.06800
C875        C  0.54801803  0.18976846  0.90283341     0.14100
C876        C  0.54819435  0.15376989  0.92409198    -0.20300
C877        C  0.51360327  0.13719620  0.93898297    -0.06800
C878        C  0.47689927  0.15660299  0.93170164     0.14000
C879        C  0.43822740  0.13988737  0.94679459    -0.23700
H880        H  0.44744770  0.20584431  0.90446037     0.15300
H881        H  0.57614451  0.13869132  0.93041969     0.15400
C882        C  0.58935144  0.20614901  0.89547995    -0.23600
H883        H  0.41211472  0.15776545  0.93694542     0.05600
H884        H  0.43819001  0.13987430  0.97962487     0.08800
H885        H  0.43436363  0.10897994  0.93559442     0.08800
H886        H  0.59174116  0.23791272  0.90349518     0.08800
H887        H  0.59892278  0.20034004  0.86477835     0.08800
H888        H  0.61228631  0.19119859  0.91400508     0.05600
C889        C  0.45452085  0.21575428  0.82328588    -0.20300
C890        C  0.47215249  0.25132326  0.83685963    -0.06800
C891        C  0.46072713  0.28716675  0.81632697     0.14100
C892        C  0.42617808  0.28741298  0.79278168    -0.20300
C893        C  0.40459403  0.25275837  0.78591702    -0.06800
C894        C  0.42211660  0.21594512  0.79713774     0.14000
C895        C  0.40718927  0.17652685  0.78194429    -0.23700
H896        H  0.46589730  0.18726616  0.83298561     0.15300
H897        H  0.41473632  0.31539551  0.78151892     0.15400
C898        C  0.48258056  0.32617089  0.81955771    -0.23600
H899        H  0.42845917  0.15189350  0.78832755     0.05600
H900        H  0.40305878  0.17764942  0.74936941     0.08800
H901        H  0.37889358  0.16929729  0.79661926     0.08800
H902        H  0.51346738  0.32271339  0.80879774     0.08800
H903        H  0.48152461  0.33811277  0.84995546     0.08800
H904        H  0.46889806  0.34954553  0.80070623     0.05600
C905        C  0.54849881  0.96709217  0.33403605    -0.20300
C906        C  0.55616443  0.99352977  0.36487251    -0.06800
C907        C  0.58218696  0.02563674  0.35858385     0.14100
C908        C  0.59920281  0.03103458  0.32105584    -0.20300
C909        C  0.59382402  0.00331576  0.28962061    -0.06800
C910        C  0.56731562  0.97055576  0.29714664     0.14000
C911        C  0.55741048  0.93770304  0.26804907    -0.23700
H912        H  0.52827201  0.94261713  0.33917915     0.15300
H913        H  0.61959091  0.05548410  0.31794555     0.15400
C914        C  0.59387067  0.05324200  0.39202873    -0.23600
H915        H  0.56879299  0.90881471  0.27940408     0.05600
H916        H  0.56924909  0.94189074  0.23820645     0.08800
H917        H  0.52457015  0.93577037  0.26464756     0.08800
H918        H  0.60979652  0.03602534  0.41515458     0.08800
H919        H  0.56728038  0.06750299  0.40545945     0.08800
H920        H  0.61399112  0.07724081  0.38196911     0.05600
C921        C  0.55245152  0.01405677  0.21387982    -0.20300
C922        C  0.59481268  0.01046276  0.21223055    -0.06800
C923        C  0.61236303  0.01596607  0.17375262     0.14100
C924        C  0.58819398  0.02437329  0.14084384    -0.20300
C925        C  0.54674780  0.02510624  0.14315973    -0.06800
C926        C  0.52860726  0.01942774  0.17999295     0.14000
C927        C  0.48391068  0.01857038  0.18342508    -0.23700
H928        H  0.53694639  0.01271949  0.24169058     0.15300
H929        H  0.60195984  0.02746191  0.11198622     0.15400
C930        C  0.65621319  0.01217220  0.16432743    -0.23600
H931        H  0.47412950  0.01405947  0.21443989     0.05600
H932        H  0.47190990  0.99378801  0.16515415     0.08800
H933        H  0.47113860  0.04718118  0.17286920     0.08800
H934        H  0.67437510  0.99947410  0.18810092     0.08800
H935        H  0.66818761  0.04179617  0.15639333     0.08800
H936        H  0.66037727  0.99160510  0.13874106     0.05600
C937        C  0.69122196  0.03831460  0.24907815    -0.20300
C938        C  0.64898148  0.04299407  0.25065328    -0.06800
C939        C  0.63397550  0.08279892  0.24513842     0.14100
C940        C  0.66008303  0.11367377  0.23533826    -0.20300
C941        C  0.70119554  0.10777707  0.23316238    -0.06800
C942        C  0.71705243  0.07000840  0.24132610     0.14000
C943        C  0.76145336  0.06304397  0.24136335    -0.23700
H944        H  0.70507735  0.00950795  0.25210183     0.15300
H945        H  0.64825204  0.14358361  0.23151728     0.15400
C946        C  0.59087702  0.09527740  0.24932819    -0.23600
H947        H  0.76924760  0.03148929  0.24755292     0.05600
H948        H  0.77563674  0.08185419  0.26448091     0.08800
H949        H  0.77387149  0.07081061  0.21200873     0.08800
H950        H  0.57126906  0.07196979  0.26060907     0.08800
H951        H  0.57925855  0.10533129  0.22025845     0.08800
H952        H  0.58860663  0.12043002  0.27077466     0.05600
C953        C  0.58814470  0.28434802  0.30136717    -0.20300
C954        C  0.61667106  0.25457843  0.30719040    -0.06800
C955        C  0.60867715  0.22429950  0.33504130     0.14100
C956        C  0.57215640  0.22403906  0.35499166    -0.20300
C957        C  0.54132190  0.25189305  0.34737961    -0.06800
C958        C  0.55117571  0.28408217  0.32115468     0.14000
C959        C  0.52361676  0.31877126  0.31280438    -0.23700
H960        H  0.59491131  0.30815801  0.28100977     0.15300
H961        H  0.56897725  0.20214181  0.37785922     0.15400
C962        C  0.63913526  0.19278239  0.34584326    -0.23600
H963        H  0.53392153  0.33651826  0.28722337     0.05600
H964        H  0.52307861  0.33957115  0.33827536     0.08800
H965        H  0.49342689  0.30847272  0.30519972     0.08800
H966        H  0.66677443  0.20717064  0.35651303     0.08800
H967        H  0.64554206  0.17308070  0.32011979     0.08800
H968        H  0.62847287  0.17314431  0.36976801     0.05600
C969        C  0.92376637  0.19978076  0.19766427    -0.20300
C970        C  0.89181494  0.22420502  0.18756707    -0.06800
C971        C  0.89610566  0.25152310  0.15638419     0.14100
C972        C  0.93294498  0.25491147  0.13711258    -0.20300
C973        C  0.96670212  0.23169259  0.14772384    -0.06800
C974        C  0.96034750  0.20158099  0.17737119     0.14000
C975        C  0.99129026  0.17106007  0.18938897    -0.23700
H976        H  0.91961271  0.17837576  0.22114267     0.15300
H977        H  0.93427418  0.27496480  0.11236941     0.15400
C978        C  0.86164064  0.27744641  0.14325512    -0.23600
H979        H  0.98154154  0.15334340  0.21521166     0.05600
H980        H  0.01939458  0.18520991  0.19850884     0.08800
H981        H  0.99605901  0.14918512  0.16536568     0.08800
H982        H  0.85055029  0.29573008  0.16844209     0.08800
H983        H  0.83707836  0.25855861  0.13195559     0.08800
H984        H  0.87028395  0.29801379  0.11921634     0.05600
C985        C  0.89749704  0.46629729  0.30867020    -0.20300
C986        C  0.90422769  0.49685336  0.28012031    -0.06800
C987        C  0.93293308  0.52630513  0.29166494     0.14100
C988        C  0.95452129  0.52213442  0.32730811    -0.20300
C989        C  0.94929623  0.48984973  0.35292404    -0.06800
C990        C  0.92017820  0.46171349  0.34336894     0.14000
C991        C  0.91104065  0.42800259  0.37111438    -0.23700
H992        H  0.87280003  0.44626434  0.30584276     0.15300
H993        H  0.97545415  0.54516677  0.33573490     0.15400
C994        C  0.94270445  0.56291624  0.26804678    -0.23600
H995        H  0.88694842  0.40861347  0.35956779     0.05600
H996        H  0.90142068  0.44009374  0.40026053     0.08800
H997        H  0.93804221  0.40918301  0.37513254     0.08800
H998        H  0.92802816  0.56432276  0.23912569     0.08800
H999        H  0.97524566  0.56360864  0.26223499     0.08800
H1000       H  0.93425871  0.58999893  0.28521310     0.05600
C1001       C  0.95100643  0.49313522  0.20709209    -0.20300
C1002       C  0.90892348  0.49492539  0.20220608    -0.06800
C1003       C  0.89515030  0.49386379  0.16183622     0.14100
C1004       C  0.92194271  0.50142225  0.13078219    -0.20300
C1005       C  0.96277971  0.50584417  0.13727894    -0.06800
C1006       C  0.97769258  0.49899280  0.17550433     0.14000
C1007       C  0.02190665  0.49754474  0.18289571    -0.23700
H1008       H  0.96393073  0.48691050  0.23557963     0.15300
H1009       H  0.91105912  0.50240968  0.10058042     0.15400
C1010       C  0.85262170  0.48539439  0.14998135    -0.23600
H1011       H  0.02893063  0.49240634  0.21457862     0.05600
H1012       H  0.03542019  0.52622194  0.17408976     0.08800
H1013       H  0.03557565  0.47297162  0.16531206     0.08800
H1014       H  0.83232555  0.50886523  0.16080861     0.08800
H1015       H  0.84343192  0.45572713  0.16057627     0.08800
H1016       H  0.84881745  0.48459540  0.11732494     0.05600
C1017       C  0.87511204  0.42238083  0.23654789    -0.20300
C1018       C  0.85344399  0.45884531  0.23687793    -0.06800
C1019       C  0.81083975  0.45529442  0.23906309     0.14100
C1020       C  0.79403997  0.41885232  0.25099339    -0.20300
C1021       C  0.81698640  0.38422887  0.25673071    -0.06800
C1022       C  0.85810832  0.38590107  0.24731762     0.14000
C1023       C  0.88502660  0.34971441  0.24872435    -0.23700
H1024       H  0.90703798  0.42312535  0.23216074     0.15300
H1025       H  0.76198360  0.41717147  0.25437552     0.15400
C1026       C  0.78055732  0.48623377  0.22654189    -0.23600
H1027       H  0.91584115  0.35648866  0.23908672     0.05600
H1028       H  0.87354112  0.32612034  0.22873137     0.08800
H1029       H  0.88693454  0.33845901  0.27946564     0.08800
H1030       H  0.79268868  0.51200852  0.21115339     0.08800
H1031       H  0.76300713  0.49651186  0.25253302     0.08800
H1032       H  0.75965312  0.47257073  0.20493712     0.05600
C1033       C  0.26589714  0.85556091  0.56037541    -0.20300
C1034       C  0.23553765  0.85249212  0.53159270    -0.06800
C1035       C  0.19962916  0.83274749  0.54413144     0.14100
C1036       C  0.19813953  0.81334534  0.58103601    -0.20300
C1037       C  0.22983253  0.81478194  0.60766374    -0.06800
C1038       C  0.26446528  0.83611159  0.59678907     0.14000
C1039       C  0.30124707  0.83806231  0.62266525    -0.23700
H1040       H  0.29144198  0.87396609  0.55541441     0.15300
H1041       H  0.17114556  0.79839354  0.59000368     0.15400
C1042       C  0.16110079  0.83336421  0.52110210    -0.23600
H1043       H  0.32664290  0.85244102  0.60748624     0.05600
H1044       H  0.31100675  0.80746672  0.63040022     0.08800
H1045       H  0.29528702  0.85586054  0.64981889     0.08800
H1046       H  0.16617828  0.82879863  0.48924379     0.08800
H1047       H  0.14520917  0.86186738  0.52664669     0.08800
H1048       H  0.14078832  0.80926646  0.53054429     0.05600
C1049       C  0.20318975  0.93130471  0.52526814    -0.20300
C1050       C  0.20402570  0.90534173  0.49157933    -0.06800
C1051       C  0.16970021  0.90691987  0.46578901     0.14100
C1052       C  0.13640125  0.92995324  0.47736971    -0.20300
C1053       C  0.13580829  0.95297979  0.51195352    -0.06800
C1054       C  0.16996567  0.95485871  0.53550419     0.14000
C1055       C  0.17085753  0.98061908  0.57209223    -0.23700
H1056       H  0.22871871  0.93196191  0.54489536     0.15300
H1057       H  0.10979771  0.92998274  0.45910908     0.15400
C1058       C  0.16496033  0.88529293  0.42657039    -0.23600
H1059       H  0.19996882  0.97853852  0.58761129     0.05600
H1060       H  0.14721197  0.97114069  0.59285469     0.08800
H1061       H  0.16566635  0.01220299  0.56390993     0.08800
H1062       H  0.17041789  0.85291457  0.42876282     0.08800
H1063       H  0.18393456  0.89919125  0.40387996     0.08800
H1064       H  0.13422019  0.88798590  0.41464387     0.05600
C1065       C  0.28141110  0.94023377  0.47766618    -0.20300
C1066       C  0.28127388  0.89873010  0.48721625    -0.06800
C1067       C  0.31971897  0.87933411  0.48624743     0.14100
C1068       C  0.35438798  0.90130300  0.47960619    -0.20300
C1069       C  0.35372740  0.94223617  0.47282446    -0.06800
C1070       C  0.31674339  0.96185409  0.47096778     0.14000
C1071       C  0.31459287  0.00577960  0.46254932    -0.23700
H1072       H  0.25386706  0.95647687  0.47390457     0.15300
H1073       H  0.38306167  0.88618054  0.48103139     0.15400
C1074       C  0.32721727  0.83556877  0.49262757    -0.23600
H1075       H  0.28338198  0.01693843  0.46202181     0.05600
H1076       H  0.32816812  0.01175203  0.43326786     0.08800
H1077       H  0.33100502  0.02256043  0.48573667     0.08800
H1078       H  0.34033842  0.82205743  0.46549625     0.08800
H1079       H  0.30059296  0.81911134  0.50004489     0.08800
H1080       H  0.34835645  0.83145737  0.51762653     0.05600
C1081       C  0.24989959  0.78393799  0.41461900    -0.20300
C1082       C  0.25788080  0.80493172  0.37997011    -0.06800
C1083       C  0.25761948  0.84685873  0.38162843     0.14100
C1084       C  0.25040456  0.86620630  0.41754065    -0.20300
C1085       C  0.24185727  0.84627480  0.45332933    -0.06800
C1086       C  0.24203509  0.80307279  0.45125829     0.14000
C1087       C  0.23421596  0.77459094  0.48506314    -0.23700
H1088       H  0.24918368  0.75170576  0.41265662     0.15300
H1089       H  0.25079931  0.89842683  0.41747508     0.15400
C1090       C  0.26264059  0.87219767  0.34535484    -0.23600
H1091       H  0.24213309  0.74340725  0.47697043     0.05600
H1092       H  0.20220063  0.77343987  0.49199175     0.08800
H1093       H  0.25205999  0.78056730  0.51181193     0.08800
H1094       H  0.23934440  0.86445739  0.32333231     0.08800
H1095       H  0.29275789  0.86753485  0.33260051     0.08800
H1096       H  0.25947295  0.90452008  0.35198451     0.05600
C1097       C  0.36828159  0.58028124  0.26547496    -0.20300
C1098       C  0.34996358  0.54274013  0.26064575    -0.06800
C1099       C  0.30839952  0.54138338  0.27228181     0.14100
C1100       C  0.28671002  0.57727466  0.27703275    -0.20300
C1101       C  0.30529787  0.61418020  0.27634157    -0.06800
C1102       C  0.34698019  0.61551420  0.27258950     0.14000
C1103       C  0.36933358  0.65434387  0.27552234    -0.23700
H1104       H  0.40002289  0.58259268  0.26259069     0.15300
H1105       H  0.25470051  0.57643137  0.28127035     0.15400
C1106       C  0.28442249  0.50483471  0.28256479    -0.23600
H1107       H  0.40209033  0.64963889  0.27430666     0.05600
H1108       H  0.36219419  0.66937216  0.30403006     0.08800
H1109       H  0.36125282  0.67427728  0.25071550     0.08800
H1110       H  0.30151234  0.47779123  0.28929777     0.08800
H1111       H  0.26247526  0.49856027  0.25878002     0.08800
H1112       H  0.26753892  0.51069369  0.31029102     0.05600
C1113       C  0.18442066  0.95817499  0.26680492    -0.20300
C1114       C  0.14298070  0.96166023  0.26038132    -0.06800
C1115       C  0.12388005  0.92374325  0.25747781     0.14100
C1116       C  0.14532991  0.89025804  0.24356891    -0.20300
C1117       C  0.18701219  0.89062753  0.23939313    -0.06800
C1118       C  0.20693644  0.92518646  0.25296509     0.14000
C1119       C  0.25163994  0.92865421  0.25198519    -0.23700
H1120       H  0.19961603  0.98006667  0.28456913     0.15300
H1121       H  0.12950480  0.86246057  0.23964477     0.15400
C1122       C  0.08409451  0.91477004  0.27588345    -0.23600
H1123       H  0.26151111  0.95888427  0.26103885     0.05600
H1124       H  0.26246440  0.92308318  0.22140804     0.08800
H1125       H  0.26584156  0.90720129  0.27232705     0.08800
H1126       H  0.06299686  0.90369590  0.25307247     0.08800
H1127       H  0.07115389  0.94025982  0.29226088     0.08800
H1128       H  0.08800668  0.89081955  0.29810710     0.05600
C1129       C  0.06982398  0.77114408  0.35815130    -0.20300
C1130       C  0.03130941  0.76738892  0.34168242    -0.06800
C1131       C  0.02974192  0.76454188  0.29938911     0.14100
C1132       C  0.06390842  0.75131929  0.27850616    -0.20300
C1133       C  0.10095005  0.74731096  0.29740744    -0.06800
C1134       C  0.10426928  0.76158610  0.33688949     0.14000
C1135       C  0.14394176  0.76820339  0.35702131    -0.23700
H1136       H  0.07305286  0.77846635  0.38914556     0.15300
H1137       H  0.06205114  0.74628640  0.24683890     0.15400
C1138       C  0.99579127  0.77964391  0.27431429    -0.23600
H1139       H  0.14056464  0.78321797  0.38624438     0.05600
H1140       H  0.16281648  0.78761984  0.33845075     0.08800
H1141       H  0.15920741  0.73935179  0.36238206     0.08800
H1142       H  0.97388119  0.79762342  0.29110006     0.08800
H1143       H  0.98112035  0.75450177  0.25874233     0.08800
H1144       H  0.00763909  0.80011812  0.25157125     0.05600
C1145       C  0.03291212  0.69786432  0.39017741    -0.20300
C1146       C  0.00100041  0.72518989  0.39780461    -0.06800
C1147       C  0.97477306  0.71490108  0.42947657     0.14100
C1148       C  0.98429327  0.68248822  0.45413538    -0.20300
C1149       C  0.01767299  0.65792404  0.44752375    -0.06800
C1150       C  0.04204201  0.66566500  0.41489809     0.14000
C1151       C  0.07639429  0.63834197  0.40450713    -0.23700
H1152       H  0.05061495  0.69995816  0.36377138     0.15300
H1153       H  0.96387796  0.67444346  0.47755124     0.15400
C1154       C  0.93557893  0.73591161  0.43722367    -0.23600
H1155       H  0.09261918  0.64847701  0.37783452     0.05600
H1156       H  0.06532139  0.60780605  0.39851485     0.08800
H1157       H  0.09786742  0.63747002  0.42949439     0.08800
H1158       H  0.91476365  0.73029158  0.41237978     0.08800
H1159       H  0.93953940  0.76822108  0.44180832     0.08800
H1160       H  0.92072447  0.72461053  0.46420489     0.05600
C1161       C  0.99470128  0.83983236  0.37732526    -0.20300
C1162       C  0.99992251  0.80353881  0.39780243    -0.06800
C1163       C  0.00674602  0.80686510  0.43949113     0.14100
C1164       C  0.99542245  0.84209454  0.45929337    -0.20300
C1165       C  0.98373498  0.87655003  0.43886012    -0.06800
C1166       C  0.98554938  0.87572321  0.39688925     0.14000
C1167       C  0.97818723  0.91214964  0.37189802    -0.23700
H1168       H  0.99382009  0.83924360  0.34531386     0.15300
H1169       H  0.99844632  0.84332026  0.49122700     0.15400
C1170       C  0.02996618  0.77748948  0.46428531    -0.23600
H1171       H  0.98176115  0.90570417  0.33980635     0.05600
H1172       H  0.99985168  0.93574699  0.37976296     0.08800
H1173       H  0.94726394  0.92317901  0.37634544     0.08800
H1174       H  0.04651784  0.75496740  0.44696179     0.08800
H1175       H  0.00999550  0.76306038  0.48594378     0.08800
H1176       H  0.05332454  0.79362936  0.48116417     0.05600
C1177       C  0.77282604  0.22058082  0.42786454    -0.20300
C1178       C  0.77379271  0.19785067  0.39320330    -0.06800
C1179       C  0.76516874  0.15703193  0.39536493     0.14100
C1180       C  0.75308568  0.14067845  0.43113715    -0.20300
C1181       C  0.74937706  0.16279088  0.46679519    -0.06800
C1182       C  0.76287444  0.20380736  0.46496628     0.14000
C1183       C  0.76971165  0.23123893  0.50009148    -0.23700
H1184       H  0.77945075  0.25204453  0.42568951     0.15300
H1185       H  0.74674180  0.10924192  0.43127619     0.15400
C1186       C  0.76783169  0.13024797  0.35941787    -0.23600
H1187       H  0.78651072  0.25822929  0.49156303     0.05600
H1188       H  0.78809828  0.21712784  0.52327875     0.08800
H1189       H  0.74135397  0.24281358  0.51205979     0.08800
H1190       H  0.79770244  0.13280843  0.34566253     0.08800
H1191       H  0.74451446  0.13871664  0.33787278     0.08800
H1192       H  0.76314556  0.09845899  0.36688448     0.05600
C1193       C  0.81711400  0.12774437  0.50394316    -0.20300
C1194       C  0.78008543  0.10767228  0.50248863    -0.06800
C1195       C  0.78187531  0.06618906  0.49019266     0.14100
C1196       C  0.81935058  0.04772752  0.48315455    -0.20300
C1197       C  0.85491796  0.06871970  0.48603829    -0.06800
C1198       C  0.85358016  0.10939825  0.49594104     0.14000
C1199       C  0.89101132  0.13399599  0.49825979    -0.23700
H1200       H  0.81755999  0.15907104  0.51098687     0.15300
H1201       H  0.82111812  0.01618290  0.47623607     0.15400
C1202       C  0.74631599  0.03977337  0.48265920    -0.23600
H1203       H  0.88444921  0.16595634  0.50418524     0.05600
H1204       H  0.90739830  0.13186739  0.46980945     0.08800
H1205       H  0.91035310  0.12323738  0.52258091     0.08800
H1206       H  0.72480556  0.05357688  0.46200004     0.08800
H1207       H  0.73224772  0.03128991  0.51085098     0.08800
H1208       H  0.75506619  0.01109707  0.46844053     0.05600
C1209       C  0.63383065  0.09127681  0.48872106    -0.20300
C1210       C  0.63024683  0.06805804  0.52263183    -0.06800
C1211       C  0.66194685  0.06682343  0.54951146     0.14100
C1212       C  0.69658439  0.08887720  0.54165553    -0.20300
C1213       C  0.70187463  0.11195282  0.50669281    -0.06800
C1214       C  0.66844111  0.11305748  0.47978218     0.14000
C1215       C  0.66582096  0.13679084  0.44200684    -0.23700
H1216       H  0.60873223  0.09202673  0.46851367     0.15300
H1217       H  0.72068072  0.08713635  0.56290571     0.15400
C1218       C  0.65920617  0.04232701  0.58648702    -0.23600
H1219       H  0.63448500  0.14017861  0.43197242     0.05600
H1220       H  0.68116137  0.12076626  0.41763691     0.08800
H1221       H  0.67655002  0.16753530  0.44551198     0.08800
H1222       H  0.65484574  0.01053036  0.57847470     0.08800
H1223       H  0.63360513  0.05283121  0.60461763     0.08800
H1224       H  0.68662999  0.04460802  0.60475085     0.05600
C1225       C  0.15613455  0.61199372  0.74013679    -0.20300
C1226       C  0.19699753  0.61079459  0.73195995    -0.06800
C1227       C  0.21697359  0.57390010  0.73402927     0.14100
C1228       C  0.19512706  0.53910747  0.74173276    -0.20300
C1229       C  0.15306320  0.53923237  0.74796156    -0.06800
C1230       C  0.13423765  0.57779756  0.74910829     0.14000
C1231       C  0.09110711  0.58576532  0.75936659    -0.23700
H1232       H  0.14091273  0.64062665  0.74075516     0.15300
H1233       H  0.21168172  0.51158196  0.74001817     0.15400
C1234       C  0.26105237  0.57057190  0.72612963    -0.23600
H1235       H  0.08952796  0.60766324  0.78413464     0.05600
H1236       H  0.07444328  0.55974112  0.76918103     0.08800
H1237       H  0.07551023  0.59857326  0.73334381     0.08800
H1238       H  0.27792783  0.58683592  0.74930425     0.08800
H1239       H  0.26790248  0.58317796  0.69665119     0.08800
H1240       H  0.27159196  0.53914083  0.72632251     0.05600
C1241       C  0.18148645  0.45942010  0.78213271    -0.20300
C1242       C  0.15606406  0.46107604  0.74807040    -0.06800
C1243       C  0.15604313  0.42602028  0.72306346     0.14100
C1244       C  0.17978682  0.39309770  0.73379411    -0.20300
C1245       C  0.20386738  0.39279330  0.76755935    -0.06800
C1246       C  0.20514527  0.42637893  0.79183971     0.14000
C1247       C  0.23071126  0.42701589  0.82845717    -0.23700
H1248       H  0.18312931  0.48481499  0.80184914     0.15300
H1249       H  0.17878502  0.36625845  0.71570466     0.15400
C1250       C  0.13253962  0.41857533  0.68540939    -0.23600
H1251       H  0.22810996  0.45579150  0.84470224     0.05600
H1252       H  0.26240068  0.42244484  0.82014712     0.08800
H1253       H  0.22148986  0.40285392  0.84866753     0.08800
H1254       H  0.15356959  0.41408664  0.66039821     0.08800
H1255       H  0.11103019  0.44113535  0.67632978     0.08800
H1256       H  0.11500432  0.39084101  0.68866938     0.05600
C1257       C  0.06130196  0.51193418  0.70844447    -0.20300
C1258       C  0.10325732  0.50601689  0.70710821    -0.06800
C1259       C  0.12193439  0.51382387  0.66967396     0.14100
C1260       C  0.09918847  0.52671544  0.63727149    -0.20300
C1261       C  0.05762899  0.53006897  0.63858336    -0.06800
C1262       C  0.03846118  0.52269498  0.67502324     0.14000
C1263       C  0.99396186  0.52705559  0.67952936    -0.23700
H1264       H  0.04552482  0.50853912  0.73594449     0.15300
H1265       H  0.11435881  0.53152214  0.60941578     0.15400
C1266       C  0.16546468  0.50685277  0.66060594    -0.23600
H1267       H  0.98443047  0.52369068  0.71077601     0.05600
H1268       H  0.97850740  0.50374034  0.66205767     0.08800
H1269       H  0.98429664  0.55703336  0.66951309     0.08800
H1270       H  0.18175302  0.49068148  0.68362966     0.08800
H1271       H  0.18022135  0.53578037  0.65515626     0.08800
H1272       H  0.16833910  0.48808237  0.63352527     0.05600
C1273       C  0.11342030  0.51288227  0.82010849    -0.20300
C1274       C  0.10223191  0.49246338  0.78492273    -0.06800
C1275       C  0.07470833  0.45995793  0.79001988     0.14100
C1276       C  0.05872708  0.45155891  0.82762505    -0.20300
C1277       C  0.07220924  0.47081814  0.86162411    -0.06800
C1278       C  0.10088555  0.50089799  0.85775445     0.14000
C1279       C  0.12040852  0.51879162  0.89370525    -0.23700
H1280       H  0.13542702  0.53612889  0.81915718     0.15300
H1281       H  0.03651688  0.42848325  0.83065240     0.15400
C1282       C  0.06124879  0.43194183  0.75781313    -0.23600
H1283       H  0.14092686  0.54340193  0.88617952     0.05600
H1284       H  0.13791878  0.49495421  0.90830685     0.08800
H1285       H  0.09783149  0.53030762  0.91476816     0.08800
H1286       H  0.07104791  0.40111640  0.76482473     0.08800
H1287       H  0.07265912  0.43921537  0.72869435     0.08800
H1288       H  0.02823948  0.43266152  0.75567490     0.05600
C1289       C  0.27699883  0.71204826  0.91495398    -0.20300
C1290       C  0.24843707  0.70350532  0.88653019    -0.06800
C1291       C  0.21814083  0.67604886  0.89530914     0.14100
C1292       C  0.21881780  0.65580971  0.93170314    -0.20300
C1293       C  0.25180703  0.65844177  0.95762164    -0.06800
C1294       C  0.27941044  0.69038038  0.95030970     0.14000
C1295       C  0.31403853  0.70058611  0.97702339    -0.23700
H1296       H  0.29916053  0.73432961  0.90824650     0.15300
H1297       H  0.19447794  0.63616083  0.93836024     0.15400
C1298       C  0.18610341  0.66674024  0.86547141    -0.23600
H1299       H  0.33286818  0.72446835  0.96454717     0.05600
H1300       H  0.33386437  0.67452627  0.98043535     0.08800
H1301       H  0.30355477  0.71224487  0.00587830     0.08800
H1302       H  0.19975304  0.65386137  0.83829993     0.08800
H1303       H  0.16987496  0.69437907  0.85757436     0.08800
H1304       H  0.16427952  0.64501588  0.87702780     0.05600
C1305       C  0.20245611  0.59616508  0.03844181    -0.20300
C1306       C  0.22114424  0.59813405  0.00030027    -0.06800
C1307       C  0.20945033  0.56706120  0.97320465     0.14100
C1308       C  0.17707455  0.54213199  0.98258866    -0.20300
C1309       C  0.15547527  0.54586720  0.01783717    -0.06800
C1310       C  0.16940564  0.57235024  0.04676231     0.14000
C1311       C  0.15057748  0.57457933  0.08727334    -0.23700
H1312       H  0.21362818  0.61270936  0.06342576     0.15300
H1313       H  0.16791941  0.51962309  0.96168913     0.15400
C1314       C  0.23081749  0.55730586  0.93500489    -0.23600
H1315       H  0.16695559  0.59490368  0.10751296     0.05600
H1316       H  0.15051246  0.54453154  0.10078151     0.08800
H1317       H  0.11961152  0.58604027  0.08513701     0.08800
H1318       H  0.26172612  0.54766214  0.94097225     0.08800
H1319       H  0.22970904  0.58224831  0.91415949     0.08800
H1320       H  0.21688418  0.53195419  0.91902518     0.05600
C1321       C  0.30297149  0.57388269  0.01866863    -0.20300
C1322       C  0.29503238  0.60140614  0.98785639    -0.06800
C1323       C  0.31988178  0.59698869  0.95280539     0.14100
C1324       C  0.35222804  0.57013066  0.95297399    -0.20300
C1325       C  0.36095963  0.54548817  0.98478463    -0.06800
C1326       C  0.33543796  0.54693432  0.01802155     0.14000
C1327       C  0.34313178  0.52166513  0.05394985    -0.23700
H1328       H  0.28409284  0.57445343  0.04460926     0.15300
H1329       H  0.37170339  0.56843515  0.92741743     0.15400
C1330       C  0.31417408  0.61698156  0.91305921    -0.23600
H1331       H  0.32104504  0.52753285  0.07776472     0.05600
H1332       H  0.37308757  0.52821418  0.06613235     0.08800
H1333       H  0.34129877  0.48965118  0.04581675     0.08800
H1334       H  0.32815605  0.64665544  0.91304074     0.08800
H1335       H  0.28303761  0.61761716  0.90314358     0.08800
H1336       H  0.32945903  0.60033641  0.88885895     0.05600
C1337       C  0.22020157  0.68266738  0.03308224    -0.20300
C1338       C  0.25563399  0.65874622  0.02996523    -0.06800
C1339       C  0.28238930  0.66069328  0.06295039     0.14100
C1340       C  0.26898844  0.67806684  0.09858871    -0.20300
C1341       C  0.23161418  0.69701965  0.10240633    -0.06800
C1342       C  0.20793762  0.70127380  0.06853438     0.14000
C1343       C  0.16842851  0.72267992  0.07027457    -0.23700
H1344       H  0.19951235  0.68337260  0.00850631     0.15300
H1345       H  0.28862420  0.67719891  0.12410640     0.15400
C1346       C  0.32557553  0.64782266  0.06324983    -0.23600
H1347       H  0.15289702  0.72212633  0.04124192     0.05600
H1348       H  0.17302622  0.75429966  0.07878479     0.08800
H1349       H  0.14889019  0.70827571  0.09236260     0.08800
H1350       H  0.33789859  0.63992148  0.03421296     0.08800
H1351       H  0.32977873  0.62246728  0.08379799     0.08800
H1352       H  0.34412273  0.67295899  0.07401760     0.05600
C1353       C  0.74924374  0.31231070  0.04843218    -0.20300
C1354       C  0.75667647  0.35388510  0.05119238    -0.06800
C1355       C  0.74946622  0.37217287  0.08923216     0.14100
C1356       C  0.73742317  0.34901774  0.12129415    -0.20300
C1357       C  0.73324416  0.30772594  0.11834125    -0.06800
C1358       C  0.73872802  0.28918889  0.08116807     0.14000
C1359       C  0.73237683  0.24508242  0.07520756    -0.23700
H1360       H  0.75055696  0.29697388  0.02038444     0.15300
H1361       H  0.73336361  0.36348328  0.14983309     0.15400
C1362       C  0.75346168  0.41603966  0.09833601    -0.23600
H1363       H  0.73372780  0.23637502  0.04347268     0.05600
H1364       H  0.70261706  0.23667930  0.08657172     0.08800
H1365       H  0.75590663  0.22778375  0.09061926     0.08800
H1366       H  0.72351731  0.42934963  0.10341369     0.08800
H1367       H  0.76859466  0.43249568  0.07504245     0.08800
H1368       H  0.77149649  0.42040641  0.12558878     0.05600
C1369       C  0.81091898  0.42211238  0.97447113    -0.20300
C1370       C  0.80298412  0.40251610  0.01080670    -0.06800
C1371       C  0.83429717  0.40345132  0.04000033     0.14100
C1372       C  0.86707042  0.42814176  0.03384985    -0.20300
C1373       C  0.87410702  0.44741018  0.99786805    -0.06800
C1374       C  0.84557997  0.44418197  0.96760947     0.14000
C1375       C  0.85064621  0.46473944  0.92848496    -0.23700
H1376       H  0.78910130  0.42052221  0.95088525     0.15300
H1377       H  0.88965964  0.42933749  0.05682315     0.15400
C1378       C  0.83952090  0.37655792  0.07562013    -0.23600
H1379       H  0.82407421  0.46113347  0.90921385     0.05600
H1380       H  0.87654376  0.45190954  0.91239308     0.08800
H1381       H  0.85516696  0.49711788  0.93347573     0.08800
H1382       H  0.82358925  0.34825319  0.07455417     0.08800
H1383       H  0.83297768  0.39318052  0.10332259     0.08800
H1384       H  0.87106750  0.36644084  0.07759972     0.05600
C1385       C  0.68242851  0.46755645  0.02284851    -0.20300
C1386       C  0.64861616  0.44479213  0.02989274    -0.06800
C1387       C  0.65206428  0.40317563  0.02892433     0.14100
C1388       C  0.68801182  0.38529156  0.01823332    -0.20300
C1389       C  0.72394950  0.40673229  0.01300681    -0.06800
C1390       C  0.72018317  0.44985489  0.01496524     0.14000
C1391       C  0.75310278  0.47930121  0.00735931    -0.23700
H1392       H  0.67870915  0.49963867  0.02181618     0.15300
H1393       H  0.68849166  0.35312974  0.01579450     0.15400
C1394       C  0.61729696  0.37715397  0.03935785    -0.23600
H1395       H  0.74352471  0.51044763  0.01363204     0.05600
H1396       H  0.76099097  0.47890105  0.97559479     0.08800
H1397       H  0.77932538  0.47447675  0.02654209     0.08800
H1398       H  0.59268116  0.38211549  0.01820761     0.08800
H1399       H  0.60683398  0.38460545  0.06967913     0.08800
H1400       H  0.62525301  0.34499035  0.03856221     0.05600
C1401       C  0.34560082  0.88825262  0.77148430    -0.20300
C1402       C  0.30426618  0.88864976  0.77577455    -0.06800
C1403       C  0.28383806  0.92537269  0.77422199     0.14100
C1404       C  0.30536201  0.96058943  0.76760063    -0.20300
C1405       C  0.34695071  0.96034838  0.75920432    -0.06800
C1406       C  0.36687493  0.92237252  0.76181234     0.14000
C1407       C  0.41044048  0.91518213  0.75320470    -0.23700
H1408       H  0.36140074  0.85994705  0.77266787     0.15300
H1409       H  0.28886964  0.98813958  0.76966244     0.15400
C1410       C  0.23919426  0.92751289  0.77818801    -0.23600
H1411       H  0.41388704  0.88990185  0.73205613     0.05600
H1412       H  0.42641121  0.90764552  0.78097935     0.08800
H1413       H  0.42479394  0.94048356  0.73909501     0.08800
H1414       H  0.23017434  0.91586807  0.80746320     0.08800
H1415       H  0.22504239  0.90955711  0.75437802     0.08800
H1416       H  0.22780373  0.95854187  0.77575800     0.05600
C1417       C  0.31494450  0.04357690  0.72766365    -0.20300
C1418       C  0.34358084  0.03874057  0.75858972    -0.06800
C1419       C  0.34818404  0.07218258  0.78507104     0.14100
C1420       C  0.32291592  0.10538380  0.78106012    -0.20300
C1421       C  0.29626462  0.10993336  0.74947876    -0.06800
C1422       C  0.29196428  0.07839770  0.72250597     0.14000
C1423       C  0.26253229  0.08079295  0.68894449    -0.23700
H1424       H  0.31114041  0.01998464  0.70627545     0.15300
H1425       H  0.32537849  0.12951026  0.80231965     0.15400
C1426       C  0.38062792  0.07704025  0.81591717    -0.23600
H1427       H  0.26160832  0.05261863  0.67155449     0.05600
H1428       H  0.27089336  0.10505082  0.66852524     0.08800
H1429       H  0.23223292  0.08668192  0.70084952     0.08800
H1430       H  0.41045387  0.07187719  0.80284101     0.08800
H1431       H  0.37497350  0.05842141  0.84200806     0.08800
H1432       H  0.38159841  0.10761085  0.82846943     0.05600
C1433       C  0.37984388  0.98685471  0.82882702    -0.20300
C1434       C  0.40002483  0.99631627  0.79319112    -0.06800
C1435       C  0.44302907  0.99545388  0.79519991     0.14100
C1436       C  0.46202738  0.98534109  0.83123318    -0.20300
C1437       C  0.44092749  0.97577467  0.86561031    -0.06800
C1438       C  0.39890279  0.97547731  0.86367905     0.14000
C1439       C  0.37291831  0.96445214  0.89829321    -0.23700
H1440       H  0.34764116  0.98863279  0.82939321     0.15300
H1441       H  0.49423781  0.98614760  0.83305005     0.15400
C1442       C  0.47105999  0.00694079  0.76232040    -0.23600
H1443       H  0.34067522  0.96560591  0.89094485     0.05600
H1444       H  0.37779716  0.98556411  0.92307145     0.08800
H1445       H  0.37984642  0.93355332  0.90770811     0.08800
H1446       H  0.46978126  0.03952197  0.75787422     0.08800
H1447       H  0.46572865  0.99014422  0.73465510     0.08800
H1448       H  0.50264554  0.00051959  0.76988848     0.05600
C1449       C  0.40462971  0.98860464  0.64480099    -0.20300
C1450       C  0.43097718  0.02063390  0.64028903    -0.06800
C1451       C  0.43371412  0.04832081  0.67154810     0.14100
C1452       C  0.41296512  0.04095511  0.70713896    -0.20300
C1453       C  0.39138336  0.00526154  0.71414629    -0.06800
C1454       C  0.38379656  0.98101935  0.67966236     0.14000
C1455       C  0.35227790  0.94890928  0.67537782    -0.23700
H1456       H  0.39947043  0.96874995  0.61993947     0.15300
H1457       H  0.41437466  0.06319085  0.73039886     0.15400
C1458       C  0.45848575  0.08523465  0.66795224    -0.23600
H1459       H  0.34559048  0.94199187  0.64387204     0.05600
H1460       H  0.32317908  0.95821191  0.68759711     0.08800
H1461       H  0.36267836  0.92032204  0.68767003     0.08800
H1462       H  0.44707916  0.10378351  0.64329086     0.08800
H1463       H  0.49000091  0.07683926  0.66221942     0.08800
H1464       H  0.45752741  0.10355876  0.69543310     0.05600
C1465       C  0.41716650  0.74980275  0.12175348    -0.20300
C1466       C  0.45162893  0.74338536  0.14526616    -0.06800
C1467       C  0.44496766  0.73747858  0.18681140     0.14100
C1468       C  0.40753964  0.74790350  0.20303553    -0.20300
C1469       C  0.37524545  0.75908161  0.17913729    -0.06800
C1470       C  0.37978866  0.75827575  0.13781402     0.14000
C1471       C  0.34571782  0.76825099  0.11027444    -0.23700
H1472       H  0.41991476  0.75093003  0.09007286     0.15300
H1473       H  0.40264543  0.74439962  0.23454355     0.15400
C1474       C  0.47337417  0.71765094  0.21531337    -0.23600
H1475       H  0.35534627  0.76892342  0.07885954     0.05600
H1476       H  0.33333141  0.79805505  0.11797341     0.08800
H1477       H  0.32196468  0.74567035  0.11245876     0.08800
H1478       H  0.48289774  0.73941048  0.23827455     0.08800
H1479       H  0.49974864  0.70383248  0.20154394     0.08800
H1480       H  0.45782666  0.69288196  0.23031611     0.05600
C1481       C  0.49027750  0.67115271  0.11517902    -0.20300
C1482       C  0.48892165  0.70761940  0.09455230    -0.06800
C1483       C  0.48649965  0.70450915  0.05218483     0.14100
C1484       C  0.49645590  0.66778699  0.03361650    -0.20300
C1485       C  0.50500683  0.63326874  0.05550995    -0.06800
C1486       C  0.49899988  0.63477219  0.09692151     0.14000
C1487       C  0.50169204  0.59839691  0.12287270    -0.23700
H1488       H  0.48765919  0.67137912  0.14689452     0.15300
H1489       H  0.49663832  0.66593809  0.00157666     0.15400
C1490       C  0.47140030  0.73652216  0.02479035    -0.23600
H1491       H  0.49276240  0.60484494  0.15391862     0.05600
H1492       H  0.53277622  0.58700173  0.12369587     0.08800
H1493       H  0.48153269  0.57509774  0.11134460     0.08800
H1494       H  0.49576683  0.74615031  0.00494136     0.08800
H1495       H  0.45838311  0.76269503  0.03977386     0.08800
H1496       H  0.44705735  0.72420348  0.00619301     0.05600
C1497       C  0.52166138  0.79384453  0.07037378    -0.20300
C1498       C  0.49373847  0.78772816  0.10096979    -0.06800
C1499       C  0.46852484  0.82164051  0.11029337     0.14100
C1500       C  0.46411892  0.85256982  0.08304205    -0.20300
C1501       C  0.48964511  0.85651189  0.05103700    -0.06800
C1502       C  0.51997207  0.82745765  0.04544120     0.14000
C1503       C  0.54970481  0.83081185  0.01226342    -0.23700
H1504       H  0.54396406  0.77147592  0.06449497     0.15300
H1505       H  0.44359563  0.87683837  0.08975101     0.15400
C1506       C  0.44916542  0.83112537  0.14974085    -0.23600
H1507       H  0.56945321  0.80417884  0.01038319     0.05600
H1508       H  0.56902722  0.85705529  0.01689503     0.08800
H1509       H  0.53374977  0.83366563  0.98362220     0.08800
H1510       H  0.45709862  0.81125883  0.17403029     0.08800
H1511       H  0.41630797  0.83223063  0.14639819     0.08800
H1512       H  0.45901464  0.86099367  0.16000211     0.05600
C1513       C  0.68009672  0.89682453  0.02954919    -0.20300
C1514       C  0.70792116  0.89620863  0.99827840    -0.06800
C1515       C  0.69915628  0.92136407  0.96490636     0.14100
C1516       C  0.66452304  0.94534096  0.96469013    -0.20300
C1517       C  0.63848544  0.94678440  0.99681904    -0.06800
C1518       C  0.64713470  0.92266871  0.03025245     0.14000
C1519       C  0.62165001  0.92277399  0.06712057    -0.23700
H1520       H  0.68321449  0.87667326  0.05397505     0.15300
H1521       H  0.65784798  0.96352326  0.93911320     0.15400
C1522       C  0.72592588  0.92457703  0.92913507    -0.23600
H1523       H  0.63252560  0.90123801  0.08953487     0.05600
H1524       H  0.59075691  0.91440484  0.05969306     0.08800
H1525       H  0.62212593  0.95262929  0.08139759     0.08800
H1526       H  0.75755202  0.92739801  0.93795369     0.08800
H1527       H  0.71864682  0.95133485  0.91131032     0.08800
H1528       H  0.72169888  0.89863302  0.90920042     0.05600
C1529       C  0.82886292  0.94665976  0.02595337    -0.20300
C1530       C  0.86257954  0.92241654  0.02400955    -0.06800
C1531       C  0.85805788  0.88171274  0.01468880     0.14100
C1532       C  0.82031581  0.86702847  0.00554546    -0.20300
C1533       C  0.78539456  0.89111828  0.00452830    -0.06800
C1534       C  0.79036851  0.93215610  0.01743966     0.14000
C1535       C  0.75725123  0.96214607  0.02468454    -0.23700
H1536       H  0.83304387  0.97791318  0.03301279     0.15300
H1537       H  0.81793405  0.83551179  0.99932323     0.15400
C1538       C  0.89301699  0.85304617  0.01479955    -0.23600
H1539       H  0.76833313  0.99012638  0.03838555     0.05600
H1540       H  0.73512707  0.95083735  0.04590531     0.08800
H1541       H  0.74360978  0.97164344  0.99657022     0.08800
H1542       H  0.90881520  0.85494156  0.04361737     0.08800
H1543       H  0.91397690  0.85978100  0.99048048     0.08800
H1544       H  0.88343080  0.82171373  0.01049437     0.05600
C1545       C  0.75855380  0.77611928  0.07360150    -0.20300
C1546       C  0.76432074  0.79693136  0.10874363    -0.06800
C1547       C  0.76344680  0.83863441  0.10838019     0.14100
C1548       C  0.75248675  0.85841039  0.07377019    -0.20300
C1549       C  0.74690919  0.83866234  0.03683362    -0.06800
C1550       C  0.75323057  0.79575586  0.03721428     0.14000
C1551       C  0.75751954  0.76856172  0.00154728    -0.23700
H1552       H  0.75920156  0.74383375  0.07470717     0.15300
H1553       H  0.75055926  0.89050089  0.07516991     0.15400
C1554       C  0.77489389  0.86257985  0.14442741    -0.23600
H1555       H  0.76878285  0.73852562  0.00974489     0.05600
H1556       H  0.77994679  0.77974760  0.98057485     0.08800
H1557       H  0.72837329  0.76281307  0.98768299     0.08800
H1558       H  0.80586642  0.85487170  0.15319671     0.08800
H1559       H  0.75475473  0.85596696  0.16915341     0.08800
H1560       H  0.77343201  0.89513777  0.13894717     0.05600
C1561       C  0.69055080  0.91686728  0.28574594    -0.20300
C1562       C  0.68811059  0.89053943  0.25377949    -0.06800
C1563       C  0.66344065  0.90112533  0.22118619     0.14100
C1564       C  0.64307342  0.93762343  0.22146847    -0.20300
C1565       C  0.64544573  0.96522576  0.25305073    -0.06800
C1566       C  0.66956797  0.95335940  0.28649236     0.14000
C1567       C  0.67329639  0.97718297  0.32444613    -0.23700
H1568       H  0.70853361  0.90832279  0.31100556     0.15300
H1569       H  0.62408530  0.94361571  0.19648863     0.15400
C1570       C  0.65642428  0.87384559  0.18602453    -0.23600
H1571       H  0.64655505  0.97258273  0.34291191     0.05600
H1572       H  0.67815079  0.00917629  0.31912165     0.08800
H1573       H  0.69901056  0.96702894  0.34256596     0.08800
H1574       H  0.64489599  0.84477004  0.19614389     0.08800
H1575       H  0.68434653  0.86957750  0.16902316     0.08800
H1576       H  0.63411524  0.88614897  0.16503120     0.05600
C1577       C  0.90484280  0.73656314  0.30433954    -0.20300
C1578       C  0.87896278  0.76931582  0.31030295    -0.06800
C1579       C  0.88851496  0.79697576  0.34026387     0.14100
C1580       C  0.92407645  0.79236728  0.36141923    -0.20300
C1581       C  0.95322758  0.76258167  0.35250318    -0.06800
C1582       C  0.94062821  0.73178113  0.32598715     0.14000
C1583       C  0.96310656  0.69291990  0.32098025    -0.23700
H1584       H  0.89620806  0.71348596  0.28352316     0.15300
H1585       H  0.92774752  0.81222847  0.38626585     0.15400
C1586       C  0.86180340  0.83198592  0.35037528    -0.23600
H1587       H  0.96230751  0.67601257  0.34901038     0.05600
H1588       H  0.99432143  0.69762678  0.31208920     0.08800
H1589       H  0.94939527  0.67360881  0.29796971     0.08800
H1590       H  0.83356452  0.82144600  0.36353170     0.08800
H1591       H  0.85553283  0.84957305  0.32334703     0.08800
H1592       H  0.87572592  0.85238213  0.37232181     0.05600
C1593       C  0.80254055  0.58441876  0.26347792    -0.34700
C1594       C  0.80520882  0.60855510  0.22975699    -0.06800
C1595       C  0.83429018  0.59874262  0.20124286     0.14100
C1596       C  0.85896956  0.56536503  0.20680823    -0.20300
C1597       C  0.85486017  0.53830313  0.23879264    -0.06800
C1598       C  0.82743159  0.55059369  0.26918036     0.14000
C1599       C  0.82418799  0.52969725  0.30844977    -0.23700
H1600       H  0.78192476  0.59324816  0.28663404     0.15300
H1601       H  0.88233199  0.56176287  0.18542501     0.15400
C1602       C  0.83949630  0.62291465  0.16406551    -0.23600
H1603       H  0.79954699  0.54208008  0.32677295     0.05600
H1604       H  0.85187607  0.53402616  0.32576139     0.08800
H1605       H  0.81827632  0.49759668  0.30455598     0.08800
H1606       H  0.85173829  0.65266661  0.17131596     0.08800
H1607       H  0.81043668  0.62619519  0.14866856     0.08800
H1608       H  0.86053692  0.60845542  0.14298044     0.05600
C1609       C  0.59376043  0.70765349  0.16772765    -0.20300
C1610       C  0.59697950  0.73105718  0.20163993    -0.06800
C1611       C  0.56847423  0.76176097  0.20779150     0.14100
C1612       C  0.53710739  0.76716114  0.18044335    -0.20300
C1613       C  0.53204340  0.74232351  0.14691680    -0.06800
C1614       C  0.56501250  0.71555395  0.13855651     0.14000
C1615       C  0.57647614  0.69873292  0.09844755    -0.23700
H1616       H  0.61778248  0.68682285  0.16102336     0.15300
H1617       H  0.51551699  0.79027515  0.18649624     0.15400
C1618       C  0.57044263  0.78832860  0.24389861    -0.23600
H1619       H  0.60767494  0.70714633  0.09169410     0.05600
H1620       H  0.55935025  0.71016090  0.07342337     0.08800
H1621       H  0.57517574  0.66573447  0.09883456     0.08800
H1622       H  0.59778865  0.80659398  0.24352323     0.08800
H1623       H  0.57028958  0.76977907  0.27095655     0.08800
H1624       H  0.54459218  0.80912509  0.24549358     0.05600
C1625       C  0.68203728  0.60372532  0.52427831    -0.20300
C1626       C  0.71155022  0.60007637  0.49470641    -0.06800
C1627       C  0.70348200  0.57204140  0.46311381     0.14100
C1628       C  0.66834349  0.54923122  0.46359389    -0.20300
C1629       C  0.64098186  0.55211918  0.49451160    -0.06800
C1630       C  0.64873755  0.57922382  0.52594693     0.14000
C1631       C  0.62173480  0.58412637  0.56148278    -0.23700
H1632       H  0.68359937  0.62672981  0.54652614     0.15300
H1633       H  0.66201599  0.52885410  0.43940896     0.15400
C1634       C  0.73014530  0.56589507  0.42755110    -0.23600
H1635       H  0.63181027  0.60794428  0.58208224     0.05600
H1636       H  0.62121312  0.55621413  0.57879496     0.08800
H1637       H  0.59138713  0.59225994  0.55178645     0.08800
H1638       H  0.76081619  0.55814573  0.43641794     0.08800
H1639       H  0.72954998  0.59240241  0.40840121     0.08800
H1640       H  0.71991247  0.54087710  0.40851470     0.05600
C1641       C  0.78840678  0.56326440  0.50865337    -0.20300
C1642       C  0.78874824  0.60513200  0.50147687    -0.06800
C1643       C  0.82589646  0.62505288  0.50848764     0.14100
C1644       C  0.85915005  0.60343536  0.52094902    -0.20300
C1645       C  0.85874330  0.56209151  0.52399522    -0.06800
C1646       C  0.82307648  0.54161605  0.51807338     0.14000
C1647       C  0.82188709  0.49689184  0.52078598    -0.23700
H1648       H  0.76120598  0.54652737  0.50721221     0.15300
H1649       H  0.88720809  0.61887234  0.52498465     0.15400
C1650       C  0.83305929  0.66900865  0.50331799    -0.23600
H1651       H  0.79147623  0.48523214  0.51540731     0.05600
H1652       H  0.83156337  0.48750050  0.55074644     0.08800
H1653       H  0.84214335  0.48341100  0.49838014     0.08800
H1654       H  0.83804392  0.68323678  0.53264445     0.08800
H1655       H  0.80875519  0.68439099  0.48814046     0.08800
H1656       H  0.86000945  0.67362158  0.48492790     0.05600
C1657       C  0.70686575  0.66996058  0.44829312    -0.20300
C1658       C  0.74492206  0.65234105  0.45569284    -0.06800
C1659       C  0.77353315  0.65455043  0.42392608     0.14100
C1660       C  0.76519120  0.67913638  0.39152101    -0.20300
C1661       C  0.72771989  0.69626590  0.38560796    -0.06800
C1662       C  0.69780233  0.69082852  0.41360850     0.14000
C1663       C  0.65645927  0.70701629  0.40689077    -0.23700
H1664       H  0.68354313  0.66736189  0.47019398     0.15300
H1665       H  0.78732338  0.68211470  0.36832803     0.15400
C1666       C  0.81059043  0.62909689  0.41798820    -0.23600
H1667       H  0.63630764  0.70017128  0.43193131     0.05600
H1668       H  0.64372526  0.69359079  0.37959158     0.08800
H1669       H  0.65759408  0.73985219  0.40352778     0.08800
H1670       H  0.81198534  0.60139678  0.43480583     0.08800
H1671       H  0.83770126  0.64710322  0.42292521     0.08800
H1672       H  0.81163346  0.61817132  0.38685847     0.05600
C1673       C  0.61099821  0.52212577  0.82115289    -0.20300
C1674       C  0.60079141  0.49296465  0.79207482    -0.06800
C1675       C  0.57109176  0.46491317  0.80383055     0.14100
C1676       C  0.54831730  0.47231948  0.83797529    -0.20300
C1677       C  0.55527959  0.50502272  0.86276230    -0.06800
C1678       C  0.58788720  0.52950951  0.85495044     0.14000
C1679       C  0.59972510  0.56217858  0.88336344    -0.23700
H1680       H  0.63780931  0.53937885  0.81836994     0.15300
H1681       H  0.52539971  0.45141553  0.84641062     0.15400
C1682       C  0.56252354  0.42657157  0.78233317    -0.23600
H1683       H  0.62631250  0.57853839  0.87293973     0.05600
H1684       H  0.60679192  0.54934390  0.91275928     0.08800
H1685       H  0.57486717  0.58394674  0.88648746     0.08800
H1686       H  0.59001371  0.40851173  0.77940811     0.08800
H1687       H  0.54788105  0.43267029  0.75387216     0.08800
H1688       H  0.54132182  0.40761361  0.79880497     0.05600
C1689       C  0.61352420  0.48812207  0.67701968    -0.20300
C1690       C  0.59448603  0.49369331  0.71392034    -0.06800
C1691       C  0.55194944  0.49927697  0.71290857     0.14100
C1692       C  0.53104425  0.49027620  0.67776684    -0.20300
C1693       C  0.55079427  0.47827414  0.64324278    -0.06800
C1694       C  0.59259618  0.47754700  0.64289187     0.14000
C1695       C  0.61554254  0.46415246  0.60684963    -0.23700
H1696       H  0.64553623  0.48761606  0.67557353     0.15300
H1697       H  0.49903537  0.49480692  0.67662001     0.15400
C1698       C  0.52669579  0.51804185  0.74511563    -0.23600
H1699       H  0.64819734  0.46383777  0.61213005     0.05600
H1700       H  0.60951071  0.48442988  0.58211320     0.08800
H1701       H  0.60646738  0.43353476  0.59834266     0.08800
H1702       H  0.54330893  0.53191474  0.76950479     0.08800
H1703       H  0.50582044  0.49569355  0.75713774     0.08800
H1704       H  0.50872543  0.54271855  0.73233020     0.05600
C1705       C  0.67924713  0.39266050  0.72298790    -0.20300
C1706       C  0.71149474  0.39461965  0.74879033    -0.06800
C1707       C  0.71189688  0.42477738  0.77812622     0.14100
C1708       C  0.68082995  0.45319301  0.77932874    -0.20300
C1709       C  0.64954901  0.45373097  0.75113216    -0.06800
C1710       C  0.64713054  0.41932263  0.72515678     0.14000
C1711       C  0.61162075  0.40469589  0.70153708    -0.23700
H1712       H  0.67732771  0.36747442  0.70273327     0.15300
H1713       H  0.68255942  0.47709580  0.80093015     0.15400
C1714       C  0.74616658  0.42881064  0.80670177    -0.23600
H1715       H  0.60364753  0.37434229  0.71162098     0.05600
H1716       H  0.61964154  0.40247705  0.66974391     0.08800
H1717       H  0.58426174  0.42216214  0.70401168     0.08800
H1718       H  0.77456204  0.43055035  0.79002749     0.08800
H1719       H  0.74732172  0.40314028  0.82707991     0.08800
H1720       H  0.74337953  0.45617627  0.82517009     0.05600
C1721       C  0.79663386  0.30112045  0.92940329    -0.20300
C1722       C  0.76605347  0.30431164  0.90155529    -0.06800
C1723       C  0.73438079  0.33161673  0.90971428     0.14100
C1724       C  0.73496270  0.35499295  0.94433300    -0.20300
C1725       C  0.76452058  0.35116514  0.97391579    -0.06800
C1726       C  0.79657440  0.32345619  0.96511976     0.14000
C1727       C  0.83198544  0.31680320  0.99196001    -0.23700
H1728       H  0.82108723  0.28084445  0.92300283     0.15300
H1729       H  0.71177490  0.37713666  0.94716813     0.15400
C1730       C  0.69950983  0.33761320  0.88191017    -0.23600
H1731       H  0.85163254  0.29237796  0.98100141     0.05600
H1732       H  0.82254550  0.30783320  0.02178651     0.08800
H1733       H  0.85094393  0.34351759  0.99304171     0.08800
H1734       H  0.68195903  0.30980602  0.87991134     0.08800
H1735       H  0.71014292  0.34633731  0.85221489     0.08800
H1736       H  0.67870714  0.36136203  0.89223051     0.05600
C1737       C  0.60662589  0.28741623  0.82517533    -0.20300
C1738       C  0.61453650  0.25621532  0.79824004    -0.06800
C1739       C  0.58500515  0.22771401  0.79141332     0.14100
C1740       C  0.55047608  0.22884259  0.81455130    -0.20300
C1741       C  0.54327091  0.25783824  0.84495169    -0.06800
C1742       C  0.57169627  0.28938196  0.84818426     0.14000
C1743       C  0.56894924  0.32467475  0.87592693    -0.23700
H1744       H  0.62896370  0.31016349  0.82953344     0.15300
H1745       H  0.52999758  0.20452900  0.81053472     0.15400
C1746       C  0.58967090  0.19552812  0.76035909    -0.23600
H1747       H  0.58443449  0.35077791  0.86322216     0.05600
H1748       H  0.58396519  0.31757693  0.90428102     0.08800
H1749       H  0.53830229  0.33512876  0.88088287     0.08800
H1750       H  0.61413753  0.17480198  0.76854381     0.08800
H1751       H  0.59608402  0.20919066  0.73125221     0.08800
H1752       H  0.56219994  0.17756369  0.75709759     0.05600
C1753       C  0.90808032  0.30348725  0.67887145    -0.20300
C1754       C  0.90208405  0.27372003  0.70667991    -0.06800
C1755       C  0.92895879  0.24106590  0.70725744     0.14100
C1756       C  0.96134262  0.23994692  0.68059822    -0.20300
C1757       C  0.96812857  0.27025361  0.65239284    -0.06800
C1758       C  0.93743493  0.30060370  0.64959531     0.14000
C1759       C  0.92863707  0.32806125  0.61528309    -0.23700
H1760       H  0.88650022  0.32768363  0.67724633     0.15300
H1761       H  0.98243467  0.21547343  0.68256218     0.15400
C1762       C  0.92344637  0.20684449  0.73526772    -0.23600
H1763       H  0.89708391  0.32444265  0.60600377     0.05600
H1764       H  0.94530833  0.32228567  0.58824390     0.08800
H1765       H  0.93258067  0.35953684  0.62468569     0.08800
H1766       H  0.89416669  0.19262407  0.72989058     0.08800
H1767       H  0.92501944  0.21780853  0.76628785     0.08800
H1768       H  0.94688179  0.18363261  0.73138658     0.05600
C1769       C  0.76818550  0.15340610  0.57535382    -0.20300
C1770       C  0.74052882  0.16146259  0.54456595    -0.06800
C1771       C  0.70920817  0.18964396  0.55391546     0.14100
C1772       C  0.70945630  0.21044474  0.59037524    -0.20300
C1773       C  0.73865913  0.20329723  0.61876105    -0.06800
C1774       C  0.76825301  0.17447991  0.61123063     0.14000
C1775       C  0.79987827  0.16537138  0.64167666    -0.23700
H1776       H  0.78953221  0.12943026  0.57276310     0.15300
H1777       H  0.68616618  0.23192773  0.59722405     0.15400
C1778       C  0.67486075  0.19883709  0.52652208    -0.23600
H1779       H  0.82152360  0.14268881  0.63085808     0.05600
H1780       H  0.78572053  0.15396752  0.66895658     0.08800
H1781       H  0.81673945  0.19281219  0.64890291     0.08800
H1782       H  0.68553270  0.20704770  0.49686667     0.08800
H1783       H  0.65677892  0.22451556  0.53732514     0.08800
H1784       H  0.65425538  0.17340653  0.52503135     0.05600
C1785       C  0.89713752  0.95524354  0.69151967    -0.20300
C1786       C  0.89876998  0.98942497  0.71686036    -0.06800
C1787       C  0.93297230  0.01434176  0.71137084     0.14100
C1788       C  0.95671275  0.00957867  0.67723726    -0.20300
C1789       C  0.95000977  0.97928027  0.64939063    -0.06800
C1790       C  0.92109890  0.95064956  0.65766103     0.14000
C1791       C  0.91352590  0.91659381  0.62939854    -0.23700
H1792       H  0.87595581  0.93195730  0.69650039     0.15300
H1793       H  0.98007435  0.03082921  0.67125800     0.15400
C1794       C  0.94574708  0.04636254  0.74020476    -0.23600
H1795       H  0.88931714  0.89696240  0.63990609     0.05600
H1796       H  0.94097972  0.89824718  0.62619249     0.08800
H1797       H  0.90465569  0.92832326  0.60001337     0.08800
H1798       H  0.95703341  0.03243946  0.76766475     0.08800
H1799       H  0.92136691  0.06757130  0.74682168     0.08800
H1800       H  0.97073465  0.06429421  0.72855327     0.05600
C1801       C  0.89310391  0.03291245  0.81390710    -0.20300
C1802       C  0.88988301  0.99725215  0.79046181    -0.06800
C1803       C  0.91339441  0.96409674  0.80371570     0.14100
C1804       C  0.93753295  0.96779627  0.83761069    -0.20300
C1805       C  0.93953449  0.00297243  0.86026430    -0.06800
C1806       C  0.91687999  0.03592887  0.84812996     0.14000
C1807       C  0.91692965  0.07428639  0.87160365    -0.23700
H1808       H  0.87896718  0.06027480  0.80497710     0.15300
H1809       H  0.95462627  0.94202362  0.84715054     0.15400
C1810       C  0.91456032  0.92356335  0.78415644    -0.23600
H1811       H  0.89682249  0.09709737  0.85853213     0.05600
H1812       H  0.94744732  0.08673128  0.87235798     0.08800
H1813       H  0.90670651  0.06866723  0.90227677     0.08800
H1814       H  0.94508292  0.91731212  0.77302170     0.08800
H1815       H  0.89371660  0.91988157  0.75952782     0.08800
H1816       H  0.90672249  0.90051421  0.80619058     0.05600
C1817       C  0.83267197  0.10834490  0.73334464    -0.20300
C1818       C  0.80713045  0.11356035  0.76580952    -0.06800
C1819       C  0.79467045  0.08007831  0.78662033     0.14100
C1820       C  0.81165894  0.04286644  0.77754857    -0.20300
C1821       C  0.84106047  0.03725886  0.74743647    -0.06800
C1822       C  0.84738030  0.07050691  0.72190826     0.14000
C1823       C  0.86608261  0.06867777  0.68138705    -0.23700
H1824       H  0.83959051  0.13399268  0.71535004     0.15300
H1825       H  0.80420878  0.01859323  0.79685471     0.15400
C1826       C  0.76470879  0.08387104  0.81957932    -0.23600
H1827       H  0.84539184  0.08240411  0.65971723     0.05600
H1828       H  0.87125787  0.03844556  0.66998896     0.08800
H1829       H  0.89426608  0.08574324  0.68110520     0.08800
H1830       H  0.73620196  0.09585684  0.80778945     0.08800
H1831       H  0.77615723  0.10438963  0.84277946     0.08800
H1832       H  0.75854968  0.05469819  0.83350273     0.05600
C1833       C  0.70889839  0.57261085  0.74887751    -0.20300
C1834       C  0.68741655  0.60665904  0.76084897    -0.06800
C1835       C  0.64526709  0.60442303  0.76075489     0.14100
C1836       C  0.62670668  0.56835571  0.75078482    -0.20300
C1837       C  0.64804868  0.53210860  0.74592089    -0.06800
C1838       C  0.69017426  0.53615003  0.73959768     0.14000
C1839       C  0.71689975  0.50613609  0.71898615    -0.23700
H1840       H  0.74087627  0.57481953  0.74511879     0.15300
H1841       H  0.59465812  0.56764239  0.75131631     0.15400
C1842       C  0.61891469  0.63936584  0.77192851    -0.23600
H1843       H  0.73127389  0.52056017  0.69325576     0.05600
H1844       H  0.70170721  0.47996717  0.70671916     0.08800
H1845       H  0.74077104  0.49617783  0.73948984     0.08800
H1846       H  0.62466257  0.66501595  0.75243115     0.08800
H1847       H  0.62451671  0.64801112  0.80318811     0.08800
H1848       H  0.58677100  0.63220628  0.76931640     0.05600
C1849       C  0.75793247  0.71718121  0.57515493    -0.20300
C1850       C  0.76483317  0.69482276  0.60941959    -0.06800
C1851       C  0.76164412  0.65289606  0.60667084     0.14100
C1852       C  0.75362031  0.63511675  0.57014642    -0.20300
C1853       C  0.74854260  0.65650888  0.53433850    -0.06800
C1854       C  0.74909658  0.69943195  0.53799963     0.14000
C1855       C  0.73918693  0.72851976  0.50539043    -0.23700
H1856       H  0.75843876  0.74935807  0.57784911     0.15300
H1857       H  0.75180372  0.60293714  0.56926554     0.15400
C1858       C  0.76514644  0.62575725  0.64207957    -0.23600
H1859       H  0.74389127  0.75990425  0.51476625     0.05600
H1860       H  0.70712372  0.72671632  0.49809529     0.08800
H1861       H  0.75804928  0.72445458  0.47892010     0.08800
H1862       H  0.74223693  0.63388571  0.66443394     0.08800
H1863       H  0.79543585  0.62778735  0.65508271     0.08800
H1864       H  0.76041409  0.59396967  0.63417961     0.05600
C1865       C  0.57515307  0.78341883  0.70061321    -0.20300
C1866       C  0.60417520  0.75468816  0.69393536    -0.06800
C1867       C  0.59560746  0.72228049  0.66858416     0.14100
C1868       C  0.55799047  0.71985042  0.65004281    -0.20300
C1869       C  0.52991964  0.75156692  0.65187905    -0.06800
C1870       C  0.53879615  0.78315363  0.67996723     0.14000
C1871       C  0.51221093  0.81870116  0.68785448    -0.23700
H1872       H  0.58201042  0.80755469  0.72095190     0.15300
H1873       H  0.55190388  0.69342699  0.63293473     0.15400
C1874       C  0.62683265  0.69095459  0.65971127    -0.23600
H1875       H  0.52544993  0.83994756  0.70941313     0.05600
H1876       H  0.48388148  0.80943562  0.70141888     0.08800
H1877       H  0.50802155  0.83588956  0.66054927     0.08800
H1878       H  0.63655729  0.67618721  0.68728504     0.08800
H1879       H  0.65305660  0.70504845  0.64572961     0.08800
H1880       H  0.61557840  0.66769053  0.63910774     0.05600
C1881       C  0.78485637  0.92031824  0.71259954    -0.20300
C1882       C  0.77925656  0.89719289  0.74643828    -0.06800
C1883       C  0.79277301  0.91345625  0.78292509     0.14100
C1884       C  0.82103213  0.94400222  0.78299233    -0.20300
C1885       C  0.83201990  0.96409587  0.74817223    -0.06800
C1886       C  0.80770973  0.95565609  0.71393714     0.14000
C1887       C  0.80508855  0.98275009  0.67854002    -0.23700
H1888       H  0.77169902  0.91061139  0.68490992     0.15300
H1889       H  0.83288159  0.95331925  0.81131884     0.15400
C1890       C  0.77656529  0.90142237  0.82261368    -0.23600
H1891       H  0.78310992  0.97172863  0.65652875     0.05600
H1892       H  0.83364150  0.98472699  0.66276877     0.08800
H1893       H  0.79471276  0.01277685  0.68782480     0.08800
H1894       H  0.80111274  0.89000386  0.84135432     0.08800
H1895       H  0.75222037  0.87942505  0.82066827     0.08800
H1896       H  0.76376822  0.92812709  0.83760798     0.05600
C1897       C  0.70515026  0.79840560  0.91354860    -0.20300
C1898       C  0.73847365  0.79527442  0.88890924    -0.06800
C1899       C  0.77296827  0.81735613  0.89911900     0.14100
C1900       C  0.77262252  0.84223724  0.93243471    -0.20300
C1901       C  0.74111026  0.84269520  0.95995861    -0.06800
C1902       C  0.70577917  0.82115081  0.94885802     0.14000
C1903       C  0.66864103  0.81999933  0.97412469    -0.23700
H1904       H  0.67845674  0.78233314  0.90542160     0.15300
H1905       H  0.79782608  0.86144980  0.93632914     0.15400
C1906       C  0.81117836  0.81517717  0.87567167    -0.23600
H1907       H  0.65207324  0.84853329  0.97201881     0.05600
H1908       H  0.67599845  0.81331987  0.00534487     0.08800
H1909       H  0.64777126  0.79652775  0.96397025     0.08800
H1910       H  0.80580501  0.82254970  0.84425292     0.08800
H1911       H  0.82408729  0.78474688  0.87788978     0.08800
H1912       H  0.83384040  0.83634640  0.88689414     0.05600
C1913       C  0.89577456  0.76537960  0.82249560    -0.20300
C1914       C  0.88863734  0.73128871  0.79929084    -0.06800
C1915       C  0.91686547  0.70024931  0.80035235     0.14100
C1916       C  0.95143879  0.70468998  0.82370288    -0.20300
C1917       C  0.95946241  0.73915484  0.84737835    -0.06800
C1918       C  0.92871575  0.76938691  0.84786540     0.14000
C1919       C  0.92542998  0.80601415  0.87438095    -0.23700
H1920       H  0.87382084  0.78921503  0.82241355     0.15300
H1921       H  0.97328105  0.68082618  0.82279894     0.15400
C1922       C  0.91153176  0.66293994  0.77603172    -0.23600
H1923       H  0.89619042  0.80557377  0.88950680     0.05600
H1924       H  0.92667125  0.83337420  0.85617921     0.08800
H1925       H  0.94626860  0.80906458  0.89895917     0.08800
H1926       H  0.90833598  0.67073659  0.74430829     0.08800
H1927       H  0.88464046  0.64687293  0.78601029     0.08800
H1928       H  0.93738388  0.64233639  0.77894337     0.05600
loop_ 
_geom_bond_atom_site_label_1 
_geom_bond_atom_site_label_2 
_geom_bond_distance 
_geom_bond_site_symmetry_2 
_ccdc_geom_bond_type 
Zn1           O5   1.939       .  S
Zn1           O6   2.040       .  S
Zn1          O10   2.114       .  S
Zn1          O17   2.007       .  S
Zn2           O5   1.949       .  S
Zn2           O7   2.089       .  S
Zn2           O9   2.032       .  S
Zn2          O13   2.030       .  S
Zn3           O5   1.859       .  S
Zn3           O8   1.956       .  S
Zn3          O11   1.969       .  S
Zn3          O14   1.958       .  S
Zn4           O5   1.944       .  S
Zn4          O12   2.137       .  S
Zn4          O15   2.034       .  S
Zn4          O16   2.042       .  S
O6           C18   1.278       .  A
O7           C19   1.282       .  A
O8           C20   1.263       .  A
O9           C18   1.277       .  A
O10          C20   1.281       .  A
O11          C19   1.264       .  A
O12          C21   1.289       .  A
O13          C22   1.276       .  A
O14          C21   1.266       .  A
O15          C22   1.276       .  A
O16          C23   1.281       .  A
O17          C23   1.276       .  A
C18        C1834   1.502       .  S
C19        C1898   1.495       .  S
C20        C1914   1.500       .  S
C21        C1882   1.507       .  S
C22        C1866   1.480       .  S
C23        C1850   1.496       .  S
C24        C1786   1.592       .  S
C24        C1802   1.595       .  S
C24        C1821   1.581   1_565  S
C24        C1885   1.590       .  S
Zn25         O29   1.923       .  S
Zn25         O30   2.011       .  S
Zn25         O34   2.017       .  S
Zn25         O41   2.067       .  S
Zn26         O29   1.946       .  S
Zn26         O31   2.050       .  S
Zn26         O33   2.048       .  S
Zn26         O37   2.142       .  S
Zn27         O29   1.913       .  S
Zn27         O32   2.027       .  S
Zn27         O35   1.999       .  S
Zn27         O38   2.054       .  S
Zn28         O29   1.869       .  S
Zn28         O36   1.970       .  S
Zn28         O39   1.952       .  S
Zn28         O40   1.964       .  S
O30          C42   1.276       .  A
O31          C43   1.278       .  A
O32          C44   1.274       .  A
O33          C42   1.281       .  A
O34          C44   1.274       .  A
O35          C43   1.277       .  A
O36          C45   1.264       .  A
O37          C46   1.288       .  A
O38          C45   1.280       .  A
O39          C46   1.261       .  A
O40          C47   1.266       .  A
O41          C47   1.280       .  A
C42        C1818   1.477       .  S
C43        C1754   1.493       .  S
C44        C1773   1.475       .  S
C45        C1706   1.481       .  S
C46        C1722   1.506       .  S
C47        C1738   1.486       .  S
C48        C1674   1.584       .  S
C48        C1690   1.563       .  S
C48        C1709   1.575       .  S
C48        C1837   1.594       .  S
C49        C1626   1.589       .  S
C49        C1642   1.572       .  S
C49        C1658   1.569       .  S
C49        C1853   1.598       .  S
Zn50         O54   1.870       .  S
Zn50         O55   1.956       .  S
Zn50         O59   1.936       .  S
Zn50         O66   1.945       .  S
Zn51         O54   1.935       .  S
Zn51         O56   2.010       .  S
Zn51         O58   2.070       .  S
Zn51         O62   2.012       .  S
Zn52         O54   1.943       .  S
Zn52         O57   2.090       .  S
Zn52         O60   2.035       .  S
Zn52         O63   2.006       .  S
Zn53         O54   1.946       .  S
Zn53         O61   2.016       .  S
Zn53         O64   2.068       .  S
Zn53         O65   2.113       .  S
O55          C67   1.264       .  A
O56          C68   1.273       .  A
O57          C69   1.281       .  A
O58          C67   1.278       .  A
O59          C69   1.259       .  A
O60          C68   1.277       .  A
O61          C70   1.275       .  A
O62          C71   1.275       .  A
O63          C70   1.274       .  A
O64          C71   1.281       .  A
O65          C72   1.286       .  A
O66          C72   1.262       .  A
C67        C1546   1.468       .  S
C68        C1578   1.495       .  S
C69        C1562   1.493       .  S
C70        C1661   1.466       .  S
C71        C1594   1.499       .  S
C72        C1610   1.484       .  S
C73        C1514   1.570       .  S
C73        C1533   1.593   1_556  S
C73        C1549   1.593   1_556  S
C73        C1901   1.571       .  S
C74        C1466   1.575       .  S
C74        C1482   1.577       .  S
C74        C1498   1.585       .  S
C74        C1613   1.588       .  S
C75        C1405   1.583   1_545  S
C75        C1418   1.586       .  S
C75        C1434   1.589   1_545  S
C75        C1453   1.579       .  S
C76        C1354   1.577       .  S
C76        C1370   1.566       .  S
C76        C1389   1.600       .  S
C76        C1725   1.600   1_554  S
C77        C1293   1.573       .  S
C77        C1306   1.610   1_556  S
C77        C1322   1.587       .  S
C77        C1338   1.585   1_556  S
C78        C1229   1.592       .  S
C78        C1242   1.583       .  S
C78        C1258   1.579       .  S
C78        C1274   1.589       .  S
C79        C1181   1.587       .  S
C79        C1194   1.596       .  S
C79        C1213   1.584       .  S
C79        C1770   1.583       .  S
C80        C1130   1.581   1_655  S
C80        C1146   1.581   1_655  S
C80        C1162   1.578       .  S
C80        C1581   1.584       .  S
Zn81         O85   1.871       .  S
Zn81         O86   1.913       .  S
Zn81         O90   1.942       .  S
Zn81         O97   1.940       .  S
Zn82         O85   1.939       .  S
Zn82         O87   2.015       .  S
Zn82         O89   2.093       .  S
Zn82         O93   2.005       .  S
Zn83         O85   1.938       .  S
Zn83         O88   2.072       .  S
Zn83         O91   2.010       .  S
Zn83         O94   2.049       .  S
Zn84         O85   1.953       .  S
Zn84         O92   2.028       .  S
Zn84         O95   2.047       .  S
Zn84         O96   2.123       .  S
O86          C98   1.258       .  A
O87          C99   1.274       .  A
O88         C100   1.281       .  A
O89          C98   1.280       .  A
O90         C100   1.266       .  A
O91          C99   1.274       .  A
O92         C101   1.277       .  A
O93         C102   1.277       .  A
O94         C101   1.277       .  A
O95         C102   1.281       .  A
O96         C103   1.283       .  A
O97         C103   1.261       .  A
C98        C1101   1.473       .  S
C99        C1082   1.489       .  S
C100       C1469   1.472       .  S
C101       C1117   1.506       .  S
C102       C1133   1.490       .  S
C103       C1341   1.492       .  S
C104       C1034   1.584       .  S
C104       C1050   1.585       .  S
C104       C1066   1.607       .  S
C104       C1085   1.580       .  S
C105        C986   1.602       .  S
C105       C1002   1.597       .  S
C105       C1018   1.585       .  S
C105       C1597   1.592       .  S
Zn106       O110   1.936       .  S
Zn106       O111   2.036       .  S
Zn106       O115   2.042       .  S
Zn106       O122   2.115       .  S
Zn107       O110   1.939       .  S
Zn107       O112   2.023       .  S
Zn107       O114   2.036       .  S
Zn107       O118   2.092       .  S
Zn108       O110   1.931       .  S
Zn108       O113   2.011       .  S
Zn108       O116   1.982       .  S
Zn108       O119   2.074       .  S
Zn109       O110   1.859       .  S
Zn109       O117   1.960       .  S
Zn109       O120   1.960       .  S
Zn109       O121   1.932       .  S
O111        C123   1.278       .  A
O112        C124   1.277       .  A
O113        C125   1.276       .  A
O114        C123   1.279       .  A
O115        C125   1.279       .  A
O116        C124   1.269       .  A
O117        C126   1.260       .  A
O118        C127   1.283       .  A
O119        C126   1.276       .  A
O120        C127   1.265       .  A
O121        C128   1.262       .  A
O122        C128   1.285       .  A
C123       C1021   1.504       .  S
C124       C1357   1.483       .  S
C125        C970   1.478       .  S
C126        C941   1.471       .  S
C127        C954   1.489       .  S
C128       C1178   1.478       .  S
C129        C909   1.577       .  S
C129        C922   1.593       .  S
C129        C938   1.584       .  S
C129       C1565   1.584   1_545  S
C130        C861   1.585       .  S
C130        C874   1.595       .  S
C130        C890   1.572       .  S
C130       C1741   1.572       .  S
Zn131       O135   1.858       .  S
Zn131       O136   1.962       .  S
Zn131       O140   1.973       .  S
Zn131       O147   1.947       .  S
Zn132       O135   1.942       .  S
Zn132       O137   2.008       .  S
Zn132       O139   2.092       .  S
Zn132       O143   2.049       .  S
Zn133       O135   1.922       .  S
Zn133       O138   2.099       .  S
Zn133       O141   2.028       .  S
Zn133       O144   2.001       .  S
Zn134       O135   1.927       .  S
Zn134       O142   2.029       .  S
Zn134       O145   2.002       .  S
Zn134       O146   2.078       .  S
O136        C148   1.266       .  A
O137        C149   1.275       .  A
O138        C150   1.285       .  A
O139        C148   1.282       .  A
O140        C150   1.263       .  A
O141        C149   1.277       .  A
O142        C151   1.278       .  A
O143        C152   1.279       .  A
O144        C151   1.274       .  A
O145        C152   1.272       .  A
O146        C153   1.284       .  A
O147        C153   1.264       .  A
C148       C1421   1.488       .  S
C149        C810   1.493       .  S
C150        C845   1.495       .  S
C151       C1245   1.472       .  S
C152        C826   1.497       .  S
C153        C893   1.491       .  S
C154        C778   1.566       .  S
C154        C797   1.587       .  S
C154        C813   1.585       .  S
C154       C1757   1.580   1_455  S
C155        C733   1.599       .  S
C155        C749   1.586       .  S
C155        C765   1.583       .  S
C155        C973   1.582   1_455  S
Zn156       O160   1.892   1_656  S
Zn156       O161   1.909       .  S
Zn156       O165   1.908       .  S
Zn156       O172   1.936       .  S
Zn157       O160   1.975   1_655  S
Zn157       O162   2.034   1_655  S
Zn157       O164   2.101       .  S
Zn157       O168   2.040   1_565  S
Zn158       O160   1.977       .  S
Zn158       O163   2.085   1_554  S
Zn158       O166   2.009       .  S
Zn158       O169   2.007   1_554  S
Zn159       O160   1.971   1_546  S
Zn159       O167   2.031       .  S
Zn159       O170   2.032   1_456  S
Zn159       O171   2.113   1_455  S
O161        C173   1.258   1_556  A
O162        C174   1.276       .  A
O163        C175   1.278       .  A
O164        C173   1.283       .  A
O165        C175   1.259   1_655  A
O166        C174   1.274       .  A
O167        C176   1.280       .  A
O168        C177   1.277       .  A
O169        C176   1.272   1_565  A
O170        C177   1.275       .  A
O171        C178   1.283       .  A
O172        C178   1.261   1_565  A
C173       C1530   1.478       .  S
C174        C717   1.486       .  S
C175        C685   1.468       .  S
C176        C698   1.489       .  S
C177        C762   1.483       .  S
C178       C1805   1.492       .  S
Zn179       O183   1.987       .  S
Zn179       O184   2.127       .  S
Zn179       O188   2.018       .  S
Zn179       O195   2.040       .  S
Zn180       O183   1.852       .  S
Zn180       O185   1.866       .  S
Zn180       O187   1.877       .  S
Zn180       O191   1.891       .  S
Zn181       O183   1.994       .  S
Zn181       O186   2.038       .  S
Zn181       O189   2.150       .  S
Zn181       O192   2.058       .  S
Zn182       O183   1.965       .  S
Zn182       O190   2.015       .  S
Zn182       O193   2.105       .  S
Zn182       O194   2.021       .  S
O184        C196   1.281       .  A
O185        C197   1.247       .  A
O186        C198   1.279       .  A
O187        C196   1.250       .  A
O188        C198   1.277       .  A
O189        C197   1.285       .  A
O190        C199   1.274       .  A
O191        C200   1.255       .  A
O192        C199   1.281       .  A
O193        C200   1.279       .  A
O194        C201   1.278       .  A
O195        C201   1.276       .  A
C196        C602   1.494       .  S
C197        C618   1.505       .  S
C198        C746   1.490       .  S
C199        C650   1.499       .  S
C200        C634   1.473       .  S
C201        C666   1.500       .  S
C202        C589   1.592       .  S
C202        C653   1.613       .  S
C202        C714   1.580   1_545  S
C202       C1114   1.613   1_545  S
Zn203       O207   1.902       .  S
Zn203       O208   1.938       .  S
Zn203       O212   1.948       .  S
Zn203       O219   1.937       .  S
Zn204       O207   1.971   1_455  S
Zn204       O209   2.029       .  S
Zn204       O211   2.078       .  S
Zn204       O215   2.028       .  S
Zn205       O207   1.960   1_465  S
Zn205       O210   2.097   1_455  S
Zn205       O213   2.017       .  S
Zn205       O216   2.009   1_455  S
Zn206       O207   1.974       .  S
Zn206       O214   2.015   1_545  S
Zn206       O217   2.042   1_655  S
Zn206       O218   2.092       .  S
O208        C220   1.262   1_655  A
O209        C221   1.275   1_545  A
O210        C222   1.281       .  A
O211        C220   1.281       .  A
O212        C222   1.263   1_545  A
O213        C221   1.274       .  A
O214        C223   1.274       .  A
O215        C224   1.274       .  A
O216        C223   1.275       .  A
O217        C224   1.277       .  A
O218        C225   1.281       .  A
O219        C225   1.262       .  A
C220        C794   1.474       .  S
C221       C1053   1.477       .  S
C222       C1789   1.484       .  S
C223       C1165   1.494       .  S
C224        C586   1.500       .  S
C225       C1197   1.475       .  S
C226        C573   1.602       .  S
C226        C669   1.589       .  S
C226        C701   1.566       .  S
C226        C842   1.592   1_554  S
Zn227       O231   1.932   1_566  S
Zn227       O232   2.004       .  S
Zn227       O236   2.055   1_566  S
Zn227       O243   2.085   1_556  S
Zn228       O231   1.946   1_556  S
Zn228       O233   2.051       .  S
Zn228       O235   2.031   1_545  S
Zn228       O239   2.101   1_545  S
Zn229       O231   1.927       .  S
Zn229       O234   2.009       .  S
Zn229       O237   2.019   1_554  S
Zn229       O240   2.090       .  S
Zn230       O231   1.876   1_565  S
Zn230       O238   1.971       .  S
Zn230       O241   1.957       .  S
Zn230       O242   1.976       .  S
O232        C244   1.273       .  A
O233        C245   1.280       .  A
O234        C246   1.275       .  A
O235        C244   1.277       .  A
O236        C246   1.280       .  A
O237        C245   1.275       .  A
O238        C247   1.266   1_565  A
O239        C248   1.284       .  A
O240        C247   1.281       .  A
O241        C248   1.262   1_554  A
O242        C249   1.264       .  A
O243        C249   1.284       .  A
C244       C1437   1.496       .  S
C245        C877   1.488       .  S
C246        C570   1.498       .  S
C247        C925   1.477       .  S
C248       C1517   1.494       .  S
C249       C1501   1.485       .  S
Zn250       O254   1.879   1_565  S
Zn250       O255   1.900       .  S
Zn250       O259   1.914       .  S
Zn250       O266   1.943       .  S
Zn251       O254   1.987       .  S
Zn251       O256   2.044       .  S
Zn251       O258   2.127       .  S
Zn251       O262   2.038       .  S
Zn252       O254   1.978   1_565  S
Zn252       O257   2.112       .  S
Zn252       O260   2.042   1_565  S
Zn252       O263   2.022       .  S
Zn253       O254   1.979       .  S
Zn253       O261   2.026   1_545  S
Zn253       O264   2.001       .  S
Zn253       O265   2.105   1_545  S
O255        C267   1.261   1_565  A
O256        C268   1.277       .  A
O257        C269   1.282       .  A
O258        C267   1.283       .  A
O259        C269   1.259       .  A
O260        C268   1.277       .  A
O261        C270   1.276       .  A
O262        C271   1.279       .  A
O263        C270   1.275       .  A
O264        C271   1.273       .  A
O265        C272   1.279       .  A
O266        C272   1.261       .  A
C267       C1450   1.502       .  S
C268       C1210   1.486       .  S
C269        C538   1.483       .  S
C270        C906   1.476       .  S
C271        C554   1.492       .  S
C272       C1069   1.486       .  S
C273        C522   1.577       .  S
C273        C557   1.597       .  S
C273        C637   1.588       .  S
C273        C957   1.583       .  S
Zn274       O278   1.937   1_655  S
Zn274       O279   2.069       .  S
Zn274       O283   2.020   1_655  S
Zn274       O290   2.021       .  S
Zn275       O278   1.858   1_654  S
Zn275       O280   1.958       .  S
Zn275       O282   1.957       .  S
Zn275       O286   1.967   1_655  S
Zn276       O278   1.930       .  S
Zn276       O281   2.051       .  S
Zn276       O284   2.139   1_556  S
Zn276       O287   2.049   1_556  S
Zn277       O278   1.941   1_554  S
Zn277       O285   2.030       .  S
Zn277       O288   2.105   1_455  S
Zn277       O289   2.036   1_554  S
O279        C291   1.279       .  A
O280        C292   1.265   1_655  A
O281        C293   1.281       .  A
O282        C291   1.267   1_554  A
O283        C293   1.276       .  A
O284        C292   1.288       .  A
O285        C294   1.279       .  A
O286        C295   1.260   1_455  A
O287        C294   1.281       .  A
O288        C295   1.280       .  A
O289        C296   1.276   1_455  A
O290        C296   1.275       .  A
C291       C1373   1.487       .  S
C292        C730   1.493       .  S
C293       C1277   1.485       .  S
C294       C1309   1.491       .  S
C295       C1005   1.482       .  S
C296        C506   1.477       .  S
Zn297       O301   1.967       .  S
Zn297       O302   2.090       .  S
Zn297       O306   2.015       .  S
Zn297       O313   2.011       .  S
Zn298       O301   1.898   1_556  S
Zn298       O303   1.951       .  S
Zn298       O305   1.932       .  S
Zn298       O309   1.924       .  S
Zn299       O301   1.972       .  S
Zn299       O304   2.015       .  S
Zn299       O307   2.109   1_554  S
Zn299       O310   2.039       .  S
Zn300       O301   1.968   1_556  S
Zn300       O308   2.015       .  S
Zn300       O311   2.074       .  S
Zn300       O312   2.026   1_556  S
O302        C314   1.278       .  A
O303        C315   1.263       .  A
O304        C316   1.275       .  A
O305        C314   1.261   1_556  A
O306        C316   1.274       .  A
O307        C315   1.284       .  A
O308        C317   1.277       .  A
O309        C318   1.262       .  A
O310        C317   1.275   1_554  A
O311        C318   1.280       .  A
O312        C319   1.273       .  A
O313        C319   1.274       .  A
C314       C1386   1.477       .  S
C315        C858   1.485       .  S
C316        C493   1.470       .  S
C317       C1325   1.496       .  S
C318       C1677   1.470       .  S
C319       C1485   1.493       .  S
Zn320       O324   1.893   1_655  S
Zn320       O325   1.912       .  S
Zn320       O329   1.947       .  S
Zn320       O336   1.922       .  S
Zn321       O324   1.970   1_655  S
Zn321       O326   1.989       .  S
Zn321       O328   2.062       .  S
Zn321       O332   2.021   1_655  S
Zn322       O324   1.973       .  S
Zn322       O327   2.115   1_455  S
Zn322       O330   2.035       .  S
Zn322       O333   2.014       .  S
Zn323       O324   1.965       .  S
Zn323       O331   2.020       .  S
Zn323       O334   2.036       .  S
Zn323       O335   2.101       .  S
O325        C337   1.261       .  A
O326        C338   1.271       .  A
O327        C339   1.284       .  A
O328        C337   1.276       .  A
O329        C339   1.262       .  A
O330        C338   1.277   1_455  A
O331        C340   1.275       .  A
O332        C341   1.272       .  A
O333        C340   1.274       .  A
O334        C341   1.277       .  A
O335        C342   1.283       .  A
O336        C342   1.260   1_655  A
C337       C1645   1.461       .  S
C338        C781   1.490   1_655  S
C339        C989   1.489       .  S
C340        C474   1.473       .  S
C341       C1261   1.500       .  S
C342       C1149   1.478       .  S
C343        C458   1.592       .  S
C343        C477   1.572       .  S
C343        C621   1.577       .  S
C343        C829   1.592       .  S
Zn344       O348   1.864       .  S
Zn344       O349   1.957       .  S
Zn344       O353   1.954       .  S
Zn344       O360   1.946       .  S
Zn345       O348   1.934       .  S
Zn345       O350   2.010       .  S
Zn345       O352   2.070       .  S
Zn345       O356   2.015       .  S
Zn346       O348   1.928       .  S
Zn346       O351   2.083       .  S
Zn346       O354   2.035       .  S
Zn346       O357   2.003       .  S
Zn347       O348   1.945       .  S
Zn347       O355   2.026       .  S
Zn347       O358   2.041       .  S
Zn347       O359   2.092       .  S
O349        C361   1.263       .  A
O350        C362   1.274       .  A
O351        C363   1.283       .  A
O352        C361   1.278       .  A
O353        C363   1.261       .  A
O354        C362   1.279       .  A
O355        C364   1.277       .  A
O356        C365   1.274       .  A
O357        C364   1.273       .  A
O358        C365   1.278       .  A
O359        C366   1.282       .  A
O360        C366   1.261       .  A
C361       C1693   1.467       .  S
C362        C461   1.493       .  S
C363        C426   1.485       .  S
C364        C445   1.483       .  S
C365        C525   1.477       .  S
C366       C1629   1.489       .  S
C367        C442   1.586       .  S
C367        C490   1.572       .  S
C367        C605   1.578       .  S
C367       C1098   1.580       .  S
C368        C410   1.585       .  S
C368        C509   1.585   1_455  S
C368        C682   1.575       .  S
C368       C1917   1.585   1_455  S
Zn369       O373   1.845       .  S
Zn369       O374   1.946       .  S
Zn369       O378   1.937       .  S
Zn369       O385   1.938       .  S
Zn370       O373   1.944       .  S
Zn370       O375   2.028       .  S
Zn370       O377   2.113       .  S
Zn370       O381   2.038       .  S
Zn371       O373   1.933       .  S
Zn371       O376   2.078       .  S
Zn371       O379   2.029       .  S
Zn371       O382   1.989       .  S
Zn372       O373   1.938       .  S
Zn372       O380   2.035       .  S
Zn372       O383   2.017       .  S
Zn372       O384   2.112       .  S
O374        C386   1.265       .  A
O375        C387   1.277       .  A
O376        C388   1.278       .  A
O377        C386   1.283       .  A
O378        C388   1.265       .  A
O379        C387   1.275       .  A
O380        C389   1.277       .  A
O381        C390   1.278       .  A
O382        C389   1.275       .  A
O383        C390   1.278       .  A
O384        C391   1.284       .  A
O385        C391   1.260       .  A
C386        C394   1.494       .  S
C387       C1290   1.476       .  S
C388       C1402   1.481       .  S
C389        C413   1.484       .  S
C390       C1226   1.491       .  S
C391       C1037   1.492       .  S
C392        C397   1.569       .  S
C392        C429   1.597       .  S
C392        C541   1.593       .  S
C392       C1869   1.596       .  S
C393        C394   1.408       .  A
C393        C398   1.406       .  A
C393        H400   1.085       .  S
C394        C395   1.404       .  A
C395        C402   1.505       .  S
C395        C396   1.410       .  A
C396        C397   1.431       .  A
C396        H401   1.084       .  S
C397        C398   1.438       .  A
C398        C399   1.513       .  S
C399        H403   1.111       .  S
C399        H404   1.110       .  S
C399        H405   1.091       .  S
C402        H406   1.110       .  S
C402        H407   1.110       .  S
C402        H408   1.111       .  S
C409        C410   1.427       .  A
C409        C414   1.412       .  A
C409        H416   1.076       .  S
C410        C411   1.438       .  A
C411        C418   1.515       .  S
C411        C412   1.394       .  A
C412        C413   1.397       .  A
C412        H417   1.085       .  S
C413        C414   1.407       .  A
C414        C415   1.506       .  S
C415        H419   1.111       .  S
C415        H420   1.109       .  S
C415        H421   1.110       .  S
C418        H422   1.109       .  S
C418        H423   1.096       .  S
C418        H424   1.111       .  S
C425        C426   1.385       .  A
C425        C430   1.402       .  A
C425        H432   1.086       .  S
C426        C427   1.415       .  A
C427        C434   1.508       .  S
C427        C428   1.408       .  A
C428        C429   1.420       .  A
C428        H433   1.084       .  S
C429        C430   1.460       .  A
C430        C431   1.517       .  S
C431        H435   1.112       .  S
C431        H436   1.086       .  S
C431        H437   1.110       .  S
C434        H438   1.108       .  S
C434        H439   1.110       .  S
C434        H440   1.111       .  S
C441        C442   1.416       .  A
C441        C446   1.398       .  A
C441        H448   1.077       .  S
C442        C443   1.450       .  A
C443        C450   1.519       .  S
C443        C444   1.411       .  A
C444        C445   1.395       .  A
C444        H449   1.085       .  S
C445        C446   1.410       .  A
C446        C447   1.512       .  S
C447        H451   1.111       .  S
C447        H452   1.109       .  S
C447        H453   1.111       .  S
C450        H454   1.104       .  S
C450        H455   1.105       .  S
C450        H456   1.111       .  S
C457        C458   1.418       .  A
C457        C462   1.402       .  A
C457        H464   1.080       .  S
C458        C459   1.450       .  A
C459        C466   1.517       .  S
C459        C460   1.411       .  A
C460        C461   1.397       .  A
C460        H465   1.084       .  S
C461        C462   1.414       .  A
C462        C463   1.511       .  S
C463        H467   1.111       .  S
C463        H468   1.110       .  S
C463        H469   1.111       .  S
C466        H470   1.104       .  S
C466        H471   1.102       .  S
C466        H472   1.111       .  S
C473        C474   1.387       .  A
C473        C478   1.405       .  A
C473        H480   1.085       .  S
C474        C475   1.411       .  A
C475        C482   1.510       .  S
C475        C476   1.404       .  A
C476        C477   1.416       .  A
C476        H481   1.077       .  S
C477        C478   1.447       .  A
C478        C479   1.512       .  S
C479        H483   1.111       .  S
C479        H484   1.110       .  S
C479        H485   1.097       .  S
C482        H486   1.110       .  S
C482        H487   1.110       .  S
C482        H488   1.111       .  S
C489        C490   1.430       .  A
C489        C494   1.398       .  A
C489        H496   1.080       .  S
C490        C491   1.436       .  A
C491        C498   1.510       .  S
C491        C492   1.410       .  A
C492        C493   1.400       .  A
C492        H497   1.084       .  S
C493        C494   1.392       .  A
C494        C495   1.506       .  S
C495        H499   1.111       .  S
C495        H500   1.110       .  S
C495        H501   1.110       .  S
C498        H502   1.103       .  S
C498        H503   1.111       .  S
C498        H504   1.106       .  S
C505        C506   1.392       .  A
C505        C510   1.409       .  A
C505        H512   1.085       .  S
C506        C507   1.406   1_655  A
C507        C514   1.505       .  S
C507        C508   1.399       .  A
C508        C509   1.420   1_455  A
C508        H513   1.078       .  S
C509        C510   1.442       .  A
C510        C511   1.504       .  S
C511        H515   1.111       .  S
C511        H516   1.110       .  S
C511        H517   1.088       .  S
C514        H518   1.110       .  S
C514        H519   1.110       .  S
C514        H520   1.111       .  S
C521        C522   1.429       .  A
C521        C526   1.404       .  A
C521        H528   1.083       .  S
C522        C523   1.443       .  A
C523        C530   1.512       .  S
C523        C524   1.411       .  A
C524        C525   1.398       .  A
C524        H529   1.085       .  S
C525        C526   1.397       .  A
C526        C527   1.505       .  S
C527        H531   1.111       .  S
C527        H532   1.110       .  S
C527        H533   1.110       .  S
C530        H534   1.106       .  S
C530        H535   1.103       .  S
C530        H536   1.111       .  S
C537        C538   1.403       .  A
C537        C542   1.408       .  A
C537        H544   1.085       .  S
C538        C539   1.397       .  A
C539        C546   1.507       .  S
C539        C540   1.407       .  A
C540        C541   1.436       .  A
C540        H545   1.077       .  S
C541        C542   1.436       .  A
C542        C543   1.507       .  S
C543        H547   1.105       .  S
C543        H548   1.111       .  S
C543        H549   1.097       .  S
C546        H550   1.110       .  S
C546        H551   1.110       .  S
C546        H552   1.111       .  S
C553        C554   1.396       .  A
C553        C558   1.413       .  A
C553        H560   1.084       .  S
C554        C555   1.414       .  A
C555        C562   1.511       .  S
C555        C556   1.400       .  A
C556        C557   1.420       .  A
C556        H561   1.080       .  S
C557        C558   1.450       .  A
C558        C559   1.515       .  S
C559        H563   1.111       .  S
C559        H564   1.106       .  S
C559        H565   1.104       .  S
C562        H566   1.110       .  S
C562        H567   1.105       .  S
C562        H568   1.111       .  S
C569        C570   1.405   1_556  A
C569        C574   1.416       .  A
C569        H576   1.080       .  S
C570        C571   1.408       .  A
C571        C578   1.512       .  S
C571        C572   1.401       .  A
C572        C573   1.428       .  A
C572        H577   1.076       .  S
C573        C574   1.435   1_554  A
C574        C575   1.510       .  S
C575        H579   1.111       .  S
C575        H580   1.107       .  S
C575        H581   1.099       .  S
C578        H582   1.109       .  S
C578        H583   1.110       .  S
C578        H584   1.111       .  S
C585        C586   1.395       .  A
C585        C590   1.414       .  A
C585        H592   1.086       .  S
C586        C587   1.413       .  A
C587        C594   1.509       .  S
C587        C588   1.406       .  A
C588        C589   1.419       .  A
C588        H593   1.081       .  S
C589        C590   1.456       .  A
C590        C591   1.515       .  S
C591        H595   1.112       .  S
C591        H596   1.111   1_455  S
C591        H597   1.088       .  S
C594        H598   1.109   1_545  S
C594        H599   1.110       .  S
C594        H600   1.111       .  S
C601        C602   1.396       .  A
C601        C606   1.415       .  A
C601        H608   1.084       .  S
C602        C603   1.424       .  A
C603        C610   1.517       .  S
C603        C604   1.394       .  A
C604        C605   1.411       .  A
C604        H609   1.079       .  S
C605        C606   1.445       .  A
C606        C607   1.510       .  S
C607        H611   1.103       .  S
C607        H612   1.101       .  S
C607        H613   1.111       .  S
C610        H614   1.110       .  S
C610        H615   1.108       .  S
C610        H616   1.111       .  S
C617        C618   1.397       .  A
C617        C622   1.413       .  A
C617        H624   1.084       .  S
C618        C619   1.434       .  A
C619        C626   1.518       .  S
C619        C620   1.396       .  A
C620        C621   1.406       .  A
C620        H625   1.073       .  S
C621        C622   1.444       .  A
C622        C623   1.510       .  S
C623        H627   1.111       .  S
C623        H628   1.110       .  S
C623        H629   1.101       .  S
C626        H630   1.110       .  S
C626        H631   1.109       .  S
C626        H632   1.111       .  S
C633        C634   1.393       .  A
C633        C638   1.417       .  A
C633        H640   1.084       .  S
C634        C635   1.404       .  A
C635        C642   1.512       .  S
C635        C636   1.394       .  A
C636        C637   1.419       .  A
C636        H641   1.079       .  S
C637        C638   1.454       .  A
C638        C639   1.514       .  S
C639        H643   1.111       .  S
C639        H644   1.106       .  S
C639        H645   1.102       .  S
C642        H646   1.110       .  S
C642        H647   1.108       .  S
C642        H648   1.111       .  S
C649        C650   1.400       .  A
C649        C654   1.409       .  A
C649        H656   1.085       .  S
C650        C651   1.413       .  A
C651        C658   1.510       .  S
C651        C652   1.410       .  A
C652        C653   1.421       .  A
C652        H657   1.070       .  S
C653        C654   1.433       .  A
C654        C655   1.500       .  S
C655        H659   1.112       .  S
C655        H660   1.107       .  S
C655        H661   1.100       .  S
C658        H662   1.110       .  S
C658        H663   1.109       .  S
C658        H664   1.111       .  S
C665        C666   1.402       .  A
C665        C670   1.404       .  A
C665        H672   1.084       .  S
C666        C667   1.415       .  A
C667        C674   1.507       .  S
C667        C668   1.413       .  A
C668        C669   1.420       .  A
C668        H673   1.076       .  S
C669        C670   1.439       .  A
C670        C671   1.513       .  S
C671        H675   1.108       .  S
C671        H676   1.111       .  S
C671        H677   1.106       .  S
C674        H678   1.110       .  S
C674        H679   1.108       .  S
C674        H680   1.111       .  S
C681        C682   1.426       .  A
C681        C686   1.408       .  A
C681        H688   1.076       .  S
C682        C683   1.442       .  A
C683        C690   1.512       .  S
C683        C684   1.398       .  A
C684        C685   1.394       .  A
C684        H689   1.086       .  S
C685        C686   1.403       .  A
C686        C687   1.506   1_556  S
C687        H691   1.111       .  S
C687        H692   1.110       .  S
C687        H693   1.110       .  S
C690        H694   1.111   1_455  S
C690        H695   1.098   1_455  S
C690        H696   1.110       .  S
C697        C698   1.401       .  A
C697        C702   1.403   1_556  A
C697        H704   1.084       .  S
C698        C699   1.414       .  A
C699        C706   1.508   1_545  S
C699        C700   1.410   1_556  A
C700        C701   1.419       .  A
C700        H705   1.077       .  S
C701        C702   1.436       .  A
C702        C703   1.514       .  S
C703        H707   1.111       .  S
C703        H708   1.105   1_554  S
C703        H709   1.108       .  S
C706        H710   1.110       .  S
C706        H711   1.109   1_556  S
C706        H712   1.111       .  S
C713        C714   1.420       .  A
C713        C718   1.406       .  A
C713        H720   1.070       .  S
C714        C715   1.438       .  A
C715        C722   1.507   1_565  S
C715        C716   1.408       .  A
C716        C717   1.399       .  A
C716        H721   1.085       .  S
C717        C718   1.402       .  A
C718        C719   1.507   1_455  S
C719        H723   1.111       .  S
C719        H724   1.110   1_655  S
C719        H725   1.109       .  S
C722        H726   1.106   1_545  S
C722        H727   1.107       .  S
C722        H728   1.111       .  S
C729        C730   1.395       .  A
C729        C734   1.422       .  A
C729        H736   1.084       .  S
C730        C731   1.411       .  A
C731        C738   1.509   1_455  S
C731        C732   1.400       .  A
C732        C733   1.415       .  A
C732        H737   1.075   1_455  S
C733        C734   1.456       .  A
C734        C735   1.516       .  S
C735        H739   1.104       .  S
C735        H740   1.111       .  S
C735        H741   1.104       .  S
C738        H742   1.109       .  S
C738        H743   1.110   1_655  S
C738        H744   1.111       .  S
C745        C746   1.395       .  A
C745        C750   1.416       .  A
C745        H752   1.085       .  S
C746        C747   1.411       .  A
C747        C754   1.508       .  S
C747        C748   1.397       .  A
C748        C749   1.412       .  A
C748        H753   1.074       .  S
C749        C750   1.456       .  A
C750        C751   1.519       .  S
C751        H755   1.111       .  S
C751        H756   1.104   1_455  S
C751        H757   1.102   1_455  S
C754        H758   1.109       .  S
C754        H759   1.109       .  S
C754        H760   1.111       .  S
C761        C762   1.400   1_455  A
C761        C766   1.415       .  A
C761        H768   1.085       .  S
C762        C763   1.397       .  A
C763        C770   1.505       .  S
C763        C764   1.405       .  A
C764        C765   1.429   1_655  A
C764        H769   1.082       .  S
C765        C766   1.443       .  A
C766        C767   1.512       .  S
C767        H771   1.111       .  S
C767        H772   1.102       .  S
C767        H773   1.106       .  S
C770        H774   1.110       .  S
C770        H775   1.110   1_554  S
C770        H776   1.111       .  S
C777        C778   1.413       .  A
C777        C782   1.400       .  A
C777        H784   1.081       .  S
C778        C779   1.435       .  A
C779        C786   1.510       .  S
C779        C780   1.410       .  A
C780        C781   1.403       .  A
C780        H785   1.084       .  S
C781        C782   1.421       .  A
C782        C783   1.512       .  S
C783        H787   1.111       .  S
C783        H788   1.109   1_455  S
C783        H789   1.110       .  S
C786        H790   1.110       .  S
C786        H791   1.101       .  S
C786        H792   1.111       .  S
C793        C794   1.401   1_655  A
C793        C798   1.410       .  A
C793        H800   1.083       .  S
C794        C795   1.399       .  A
C795        C802   1.509       .  S
C795        C796   1.400       .  A
C796        C797   1.428       .  A
C796        H801   1.078       .  S
C797        C798   1.435   1_455  A
C798        C799   1.506       .  S
C799        H803   1.111       .  S
C799        H804   1.099       .  S
C799        H805   1.106       .  S
C802        H806   1.110       .  S
C802        H807   1.110       .  S
C802        H808   1.111       .  S
C809        C810   1.404       .  A
C809        C814   1.411       .  A
C809        H816   1.085       .  S
C810        C811   1.419       .  A
C811        C818   1.511       .  S
C811        C812   1.399       .  A
C812        C813   1.415       .  A
C812        H817   1.079       .  S
C813        C814   1.434       .  A
C814        C815   1.509       .  S
C815        H819   1.111       .  S
C815        H820   1.110       .  S
C815        H821   1.102   1_455  S
C818        H822   1.110       .  S
C818        H823   1.110       .  S
C818        H824   1.111       .  S
C825        C826   1.394       .  A
C825        C830   1.413       .  A
C825        H832   1.084       .  S
C826        C827   1.415       .  A
C827        C834   1.509       .  S
C827        C828   1.403       .  A
C828        C829   1.416       .  A
C828        H833   1.077       .  S
C829        C830   1.453       .  A
C830        C831   1.515       .  S
C831        H835   1.111       .  S
C831        H836   1.105       .  S
C831        H837   1.102       .  S
C834        H838   1.110       .  S
C834        H839   1.106       .  S
C834        H840   1.111       .  S
C841        C842   1.418       .  A
C841        C846   1.413       .  A
C841        H848   1.083       .  S
C842        C843   1.450       .  A
C843        C850   1.515       .  S
C843        C844   1.404       .  A
C844        C845   1.391       .  A
C844        H849   1.086       .  S
C845        C846   1.419       .  A
C846        C847   1.508       .  S
C847        H851   1.111       .  S
C847        H852   1.110       .  S
C847        H853   1.109       .  S
C850        H854   1.110       .  S
C850        H855   1.090       .  S
C850        H856   1.112       .  S
C857        C858   1.392       .  A
C857        C862   1.410       .  A
C857        H864   1.085       .  S
C858        C859   1.412       .  A
C859        C866   1.501       .  S
C859        C860   1.403       .  A
C860        C861   1.410       .  A
C860        H865   1.076       .  S
C861        C862   1.452       .  A
C862        C863   1.513       .  S
C863        H867   1.111       .  S
C863        H868   1.097       .  S
C863        H869   1.110       .  S
C866        H870   1.109   1_556  S
C866        H871   1.110       .  S
C866        H872   1.111   1_556  S
C873        C874   1.417       .  A
C873        C878   1.408       .  A
C873        H880   1.077       .  S
C874        C875   1.457       .  A
C875        C882   1.518       .  S
C875        C876   1.411       .  A
C876        C877   1.388       .  A
C876        H881   1.085       .  S
C877        C878   1.412       .  A
C878        C879   1.510       .  S
C879        H883   1.111       .  S
C879        H884   1.110       .  S
C879        H885   1.111       .  S
C882        H886   1.102       .  S
C882        H887   1.102       .  S
C882        H888   1.111       .  S
C889        C890   1.410       .  A
C889        C894   1.401       .  A
C889        H896   1.080       .  S
C890        C891   1.443       .  A
C891        C898   1.509       .  S
C891        C892   1.406       .  A
C892        C893   1.393       .  A
C892        H897   1.084       .  S
C893        C894   1.419       .  A
C894        C895   1.505       .  S
C895        H899   1.111       .  S
C895        H900   1.110       .  S
C895        H901   1.102       .  S
C898        H902   1.105       .  S
C898        H903   1.101       .  S
C898        H904   1.111       .  S
C905        C906   1.389       .  A
C905        C910   1.405       .  A
C905        H912   1.085       .  S
C906        C907   1.410   1_565  A
C907        C914   1.510       .  S
C907        C908   1.405       .  A
C908        C909   1.420       .  A
C908        H913   1.079       .  S
C909        C910   1.444   1_545  A
C910        C911   1.511       .  S
C911        H915   1.111       .  S
C911        H916   1.095       .  S
C911        H917   1.111       .  S
C914        H918   1.110       .  S
C914        H919   1.107       .  S
C914        H920   1.111       .  S
C921        C922   1.428       .  A
C921        C926   1.408       .  A
C921        H928   1.077       .  S
C922        C923   1.442       .  A
C923        C930   1.511       .  S
C923        C924   1.405       .  A
C924        C925   1.394       .  A
C924        H929   1.086       .  S
C925        C926   1.402       .  A
C926        C927   1.506       .  S
C927        H931   1.111       .  S
C927        H932   1.110   1_545  S
C927        H933   1.110       .  S
C930        H934   1.095   1_545  S
C930        H935   1.110       .  S
C930        H936   1.111   1_545  S
C937        C938   1.427       .  A
C937        C942   1.404       .  A
C937        H944   1.076       .  S
C938        C939   1.438       .  A
C939        C946   1.510       .  S
C939        C940   1.404       .  A
C940        C941   1.395       .  A
C940        H945   1.086       .  S
C941        C942   1.401       .  A
C942        C943   1.508       .  S
C943        H947   1.111       .  S
C943        H948   1.110       .  S
C943        H949   1.110       .  S
C946        H950   1.097       .  S
C946        H951   1.111       .  S
C946        H952   1.111       .  S
C953        C954   1.394       .  A
C953        C958   1.411       .  A
C953        H960   1.084       .  S
C954        C955   1.418       .  A
C955        C962   1.513       .  S
C955        C956   1.401       .  A
C956        C957   1.415       .  A
C956        H961   1.077       .  S
C957        C958   1.443       .  A
C958        C959   1.510       .  S
C959        H963   1.111       .  S
C959        H964   1.105       .  S
C959        H965   1.103       .  S
C962        H966   1.108       .  S
C962        H967   1.109       .  S
C962        H968   1.109       .  S
C969        C970   1.389       .  A
C969        C974   1.410       .  A
C969        H976   1.084       .  S
C970        C971   1.410       .  A
C971        C978   1.511       .  S
C971        C972   1.405       .  A
C972        C973   1.418       .  A
C972        H977   1.079       .  S
C973        C974   1.446       .  A
C974        C975   1.511       .  S
C975        H979   1.111       .  S
C975        H980   1.102   1_655  S
C975        H981   1.102       .  S
C978        H982   1.109       .  S
C978        H983   1.110       .  S
C978        H984   1.110       .  S
C985        C986   1.433       .  A
C985        C990   1.406       .  A
C985        H992   1.075       .  S
C986        C987   1.438       .  A
C987        C994   1.509       .  S
C987        C988   1.412       .  A
C988        C989   1.404       .  A
C988        H993   1.085       .  S
C989        C990   1.401       .  A
C990        C991   1.509       .  S
C991        H995   1.111       .  S
C991        H996   1.110       .  S
C991        H997   1.110       .  S
C994        H998   1.095       .  S
C994        H999   1.111       .  S
C994       H1000   1.110       .  S
C1001      C1002   1.423       .  A
C1001      C1006   1.411       .  A
C1001      H1008   1.077       .  S
C1002      C1003   1.440       .  A
C1003      C1010   1.511       .  S
C1003      C1004   1.409       .  A
C1004      C1005   1.397       .  A
C1004      H1009   1.084       .  S
C1005      C1006   1.405       .  A
C1006      C1007   1.506   1_655  S
C1007      H1011   1.111       .  S
C1007      H1012   1.110       .  S
C1007      H1013   1.110       .  S
C1010      H1014   1.099       .  S
C1010      H1015   1.107       .  S
C1010      H1016   1.111       .  S
C1017      C1018   1.420       .  A
C1017      C1022   1.406       .  A
C1017      H1024   1.083       .  S
C1018      C1019   1.439       .  A
C1019      C1026   1.511       .  S
C1019      C1020   1.413       .  A
C1020      C1021   1.404       .  A
C1020      H1025   1.085       .  S
C1021      C1022   1.419       .  A
C1022      C1023   1.510       .  S
C1023      H1027   1.111       .  S
C1023      H1028   1.109       .  S
C1023      H1029   1.110       .  S
C1026      H1030   1.094       .  S
C1026      H1031   1.110       .  S
C1026      H1032   1.111       .  S
C1033      C1034   1.412       .  A
C1033      C1038   1.398       .  A
C1033      H1040   1.075       .  S
C1034      C1035   1.446       .  A
C1035      C1042   1.509       .  S
C1035      C1036   1.412       .  A
C1036      C1037   1.394       .  A
C1036      H1041   1.084       .  S
C1037      C1038   1.421       .  A
C1038      C1039   1.514       .  S
C1039      H1043   1.111       .  S
C1039      H1044   1.109       .  S
C1039      H1045   1.109       .  S
C1042      H1046   1.100       .  S
C1042      H1047   1.107       .  S
C1042      H1048   1.111       .  S
C1049      C1050   1.429       .  A
C1049      C1054   1.405       .  A
C1049      H1056   1.084       .  S
C1050      C1051   1.445       .  A
C1051      C1058   1.516       .  S
C1051      C1052   1.409       .  A
C1052      C1053   1.397       .  A
C1052      H1057   1.085       .  S
C1053      C1054   1.397       .  A
C1054      C1055   1.504       .  S
C1055      H1059   1.111       .  S
C1055      H1060   1.110       .  S
C1055      H1061   1.110   1_565  S
C1058      H1062   1.104       .  S
C1058      H1063   1.106       .  S
C1058      H1064   1.111       .  S
C1065      C1066   1.433       .  A
C1065      C1070   1.415       .  A
C1065      H1072   1.078       .  S
C1066      C1067   1.442       .  A
C1067      C1074   1.506       .  S
C1067      C1068   1.402       .  A
C1068      C1069   1.395       .  A
C1068      H1073   1.086       .  S
C1069      C1070   1.403       .  A
C1070      C1071   1.505   1_565  S
C1071      H1075   1.111       .  S
C1071      H1076   1.110       .  S
C1071      H1077   1.110       .  S
C1074      H1078   1.110       .  S
C1074      H1079   1.085       .  S
C1074      H1080   1.112       .  S
C1081      C1082   1.398       .  A
C1081      C1086   1.415       .  A
C1081      H1088   1.084       .  S
C1082      C1083   1.408       .  A
C1083      C1090   1.508       .  S
C1083      C1084   1.393       .  A
C1084      C1085   1.417       .  A
C1084      H1089   1.082       .  S
C1085      C1086   1.452       .  A
C1086      C1087   1.520       .  S
C1087      H1091   1.111       .  S
C1087      H1092   1.102       .  S
C1087      H1093   1.102       .  S
C1090      H1094   1.110       .  S
C1090      H1095   1.110       .  S
C1090      H1096   1.111       .  S
C1097      C1098   1.415       .  A
C1097      C1102   1.397       .  A
C1097      H1104   1.074       .  S
C1098      C1099   1.452       .  A
C1099      C1106   1.516       .  S
C1099      C1100   1.412       .  A
C1100      C1101   1.392       .  A
C1100      H1105   1.085       .  S
C1101      C1102   1.407       .  A
C1102      C1103   1.512       .  S
C1103      H1107   1.111       .  S
C1103      H1108   1.110       .  S
C1103      H1109   1.109       .  S
C1106      H1110   1.096       .  S
C1106      H1111   1.110       .  S
C1106      H1112   1.112       .  S
C1113      C1114   1.412       .  A
C1113      C1118   1.414       .  A
C1113      H1120   1.077       .  S
C1114      C1115   1.433       .  A
C1115      C1122   1.508       .  S
C1115      C1116   1.409       .  A
C1116      C1117   1.407       .  A
C1116      H1121   1.085       .  S
C1117      C1118   1.417       .  A
C1118      C1119   1.507       .  S
C1119      H1123   1.111       .  S
C1119      H1124   1.110       .  S
C1119      H1125   1.105       .  S
C1122      H1126   1.110       .  S
C1122      H1127   1.103       .  S
C1122      H1128   1.111       .  S
C1129      C1130   1.413       .  A
C1129      C1134   1.397       .  A
C1129      H1136   1.080       .  S
C1130      C1131   1.433       .  A
C1131      C1138   1.507   1_455  S
C1131      C1132   1.415       .  A
C1132      C1133   1.404       .  A
C1132      H1137   1.084       .  S
C1133      C1134   1.419       .  A
C1134      C1135   1.512       .  S
C1135      H1139   1.111       .  S
C1135      H1140   1.111       .  S
C1135      H1141   1.109       .  S
C1138      H1142   1.103       .  S
C1138      H1143   1.110       .  S
C1138      H1144   1.111   1_655  S
C1145      C1146   1.428       .  A
C1145      C1150   1.403       .  A
C1145      H1152   1.076       .  S
C1146      C1147   1.433   1_455  A
C1147      C1154   1.511       .  S
C1147      C1148   1.410       .  A
C1148      C1149   1.404   1_655  A
C1148      H1153   1.085       .  S
C1149      C1150   1.401       .  A
C1150      C1151   1.509       .  S
C1151      H1155   1.111       .  S
C1151      H1156   1.110       .  S
C1151      H1157   1.110       .  S
C1154      H1158   1.108       .  S
C1154      H1159   1.104       .  S
C1154      H1160   1.111       .  S
C1161      C1162   1.415       .  A
C1161      C1166   1.403       .  A
C1161      H1168   1.082       .  S
C1162      C1163   1.431   1_655  A
C1163      C1170   1.511       .  S
C1163      C1164   1.405   1_455  A
C1164      C1165   1.405       .  A
C1164      H1169   1.085       .  S
C1165      C1166   1.420       .  A
C1166      C1167   1.510       .  S
C1167      H1171   1.111       .  S
C1167      H1172   1.110       .  S
C1167      H1173   1.110       .  S
C1170      H1174   1.101       .  S
C1170      H1175   1.110       .  S
C1170      H1176   1.111       .  S
C1177      C1178   1.394       .  A
C1177      C1182   1.420       .  A
C1177      H1184   1.084       .  S
C1178      C1179   1.405       .  A
C1179      C1186   1.509       .  S
C1179      C1180   1.394       .  A
C1180      C1181   1.416       .  A
C1180      H1185   1.078       .  S
C1181      C1182   1.455       .  A
C1182      C1183   1.516       .  S
C1183      H1187   1.111       .  S
C1183      H1188   1.104       .  S
C1183      H1189   1.102       .  S
C1186      H1190   1.110       .  S
C1186      H1191   1.106       .  S
C1186      H1192   1.111       .  S
C1193      C1194   1.419       .  A
C1193      C1198   1.393       .  A
C1193      H1200   1.077       .  S
C1194      C1195   1.452       .  A
C1195      C1202   1.513       .  S
C1195      C1196   1.418       .  A
C1196      C1197   1.394       .  A
C1196      H1201   1.084       .  S
C1197      C1198   1.404       .  A
C1198      C1199   1.511       .  S
C1199      H1203   1.111       .  S
C1199      H1204   1.110       .  S
C1199      H1205   1.108       .  S
C1202      H1206   1.106       .  S
C1202      H1207   1.104       .  S
C1202      H1208   1.111       .  S
C1209      C1210   1.397       .  A
C1209      C1214   1.412       .  A
C1209      H1216   1.084       .  S
C1210      C1211   1.399       .  A
C1211      C1218   1.504       .  S
C1211      C1212   1.410       .  A
C1212      C1213   1.430       .  A
C1212      H1217   1.083       .  S
C1213      C1214   1.444       .  A
C1214      C1215   1.512       .  S
C1215      H1219   1.110       .  S
C1215      H1220   1.106       .  S
C1215      H1221   1.101       .  S
C1218      H1222   1.110       .  S
C1218      H1223   1.110       .  S
C1218      H1224   1.111       .  S
C1225      C1226   1.400       .  A
C1225      C1230   1.403       .  A
C1225      H1232   1.086       .  S
C1226      C1227   1.407       .  A
C1227      C1234   1.508       .  S
C1227      C1228   1.410       .  A
C1228      C1229   1.428       .  A
C1228      H1233   1.076       .  S
C1229      C1230   1.437       .  A
C1230      C1231   1.511       .  S
C1231      H1235   1.111       .  S
C1231      H1236   1.095       .  S
C1231      H1237   1.111       .  S
C1234      H1238   1.109       .  S
C1234      H1239   1.110       .  S
C1234      H1240   1.111       .  S
C1241      C1242   1.433       .  A
C1241      C1246   1.400       .  A
C1241      H1248   1.080       .  S
C1242      C1243   1.444       .  A
C1243      C1250   1.517       .  S
C1243      C1244   1.408       .  A
C1244      C1245   1.398       .  A
C1244      H1249   1.086       .  S
C1245      C1246   1.391       .  A
C1246      C1247   1.505       .  S
C1247      H1251   1.111       .  S
C1247      H1252   1.110       .  S
C1247      H1253   1.110       .  S
C1250      H1254   1.111       .  S
C1250      H1255   1.088       .  S
C1250      H1256   1.112       .  S
C1257      C1258   1.422       .  A
C1257      C1262   1.412       .  A
C1257      H1264   1.078       .  S
C1258      C1259   1.440       .  A
C1259      C1266   1.510       .  S
C1259      C1260   1.403       .  A
C1260      C1261   1.400       .  A
C1260      H1265   1.085       .  S
C1261      C1262   1.415       .  A
C1262      C1263   1.508   1_455  S
C1263      H1267   1.111       .  S
C1263      H1268   1.109       .  S
C1263      H1269   1.110       .  S
C1266      H1270   1.095       .  S
C1266      H1271   1.110       .  S
C1266      H1272   1.112       .  S
C1273      C1274   1.420       .  A
C1273      C1278   1.403       .  A
C1273      H1280   1.080       .  S
C1274      C1275   1.447       .  A
C1275      C1282   1.505       .  S
C1275      C1276   1.412       .  A
C1276      C1277   1.391       .  A
C1276      H1281   1.085       .  S
C1277      C1278   1.408       .  A
C1278      C1279   1.504       .  S
C1279      H1283   1.111       .  S
C1279      H1284   1.108       .  S
C1279      H1285   1.107       .  S
C1282      H1286   1.111       .  S
C1282      H1287   1.087       .  S
C1282      H1288   1.111       .  S
C1289      C1290   1.387       .  A
C1289      C1294   1.405       .  A
C1289      H1296   1.085       .  S
C1290      C1291   1.411       .  A
C1291      C1298   1.507       .  S
C1291      C1292   1.410       .  A
C1292      C1293   1.414       .  A
C1292      H1297   1.079       .  S
C1293      C1294   1.446       .  A
C1294      C1295   1.511       .  S
C1295      H1299   1.111       .  S
C1295      H1300   1.102       .  S
C1295      H1301   1.105   1_556  S
C1298      H1302   1.110       .  S
C1298      H1303   1.107       .  S
C1298      H1304   1.111       .  S
C1305      C1306   1.437       .  A
C1305      C1310   1.403       .  A
C1305      H1312   1.076       .  S
C1306      C1307   1.440   1_554  A
C1307      C1314   1.511       .  S
C1307      C1308   1.415       .  A
C1308      C1309   1.400   1_556  A
C1308      H1313   1.077       .  S
C1309      C1310   1.399       .  A
C1310      C1311   1.510       .  S
C1311      H1315   1.111       .  S
C1311      H1316   1.110       .  S
C1311      H1317   1.109       .  S
C1314      H1318   1.104       .  S
C1314      H1319   1.099       .  S
C1314      H1320   1.111       .  S
C1321      C1322   1.421   1_554  A
C1321      C1326   1.412       .  A
C1321      H1328   1.083       .  S
C1322      C1323   1.456       .  A
C1323      C1330   1.517       .  S
C1323      C1324   1.407       .  A
C1324      C1325   1.391       .  A
C1324      H1329   1.085       .  S
C1325      C1326   1.414   1_556  A
C1326      C1327   1.507       .  S
C1327      H1331   1.111       .  S
C1327      H1332   1.109       .  S
C1327      H1333   1.110       .  S
C1330      H1334   1.105       .  S
C1330      H1335   1.098       .  S
C1330      H1336   1.111       .  S
C1337      C1338   1.434       .  A
C1337      C1342   1.408       .  A
C1337      H1344   1.082       .  S
C1338      C1339   1.432       .  A
C1339      C1346   1.510       .  S
C1339      C1340   1.408       .  A
C1340      C1341   1.409       .  A
C1340      H1345   1.085       .  S
C1341      C1342   1.400       .  A
C1342      C1343   1.505       .  S
C1343      H1347   1.111       .  S
C1343      H1348   1.110       .  S
C1343      H1349   1.110       .  S
C1346      H1350   1.096       .  S
C1346      H1351   1.111       .  S
C1346      H1352   1.112       .  S
C1353      C1354   1.422       .  A
C1353      C1358   1.403       .  A
C1353      H1360   1.076       .  S
C1354      C1355   1.441       .  A
C1355      C1362   1.509       .  S
C1355      C1356   1.400       .  A
C1356      C1357   1.397       .  A
C1356      H1361   1.085       .  S
C1357      C1358   1.410       .  A
C1358      C1359   1.510       .  S
C1359      H1363   1.111       .  S
C1359      H1364   1.110       .  S
C1359      H1365   1.109       .  S
C1362      H1366   1.110       .  S
C1362      H1367   1.093       .  S
C1362      H1368   1.111       .  S
C1369      C1370   1.424   1_556  A
C1369      C1374   1.405       .  A
C1369      H1376   1.083       .  S
C1370      C1371   1.441       .  A
C1371      C1378   1.519       .  S
C1371      C1372   1.399       .  A
C1372      C1373   1.403   1_554  A
C1372      H1377   1.086       .  S
C1373      C1374   1.405       .  A
C1374      C1375   1.507       .  S
C1375      H1379   1.111       .  S
C1375      H1380   1.109       .  S
C1375      H1381   1.111       .  S
C1378      H1382   1.094       .  S
C1378      H1383   1.108       .  S
C1378      H1384   1.112       .  S
C1385      C1386   1.395       .  A
C1385      C1390   1.421       .  A
C1385      H1392   1.084       .  S
C1386      C1387   1.401       .  A
C1387      C1394   1.507       .  S
C1387      C1388   1.391       .  A
C1388      C1389   1.422       .  A
C1388      H1393   1.082       .  S
C1389      C1390   1.454       .  A
C1390      C1391   1.512       .  S
C1391      H1395   1.111       .  S
C1391      H1396   1.106   1_554  S
C1391      H1397   1.104       .  S
C1394      H1398   1.105       .  S
C1394      H1399   1.110       .  S
C1394      H1400   1.111       .  S
C1401      C1402   1.396       .  A
C1401      C1406   1.396       .  A
C1401      H1408   1.086       .  S
C1402      C1403   1.408       .  A
C1403      C1410   1.507       .  S
C1403      C1404   1.410       .  A
C1404      C1405   1.426       .  A
C1404      H1409   1.077       .  S
C1405      C1406   1.439       .  A
C1406      C1407   1.509       .  S
C1407      H1411   1.111       .  S
C1407      H1412   1.110       .  S
C1407      H1413   1.093       .  S
C1410      H1414   1.110       .  S
C1410      H1415   1.111       .  S
C1410      H1416   1.111       .  S
C1417      C1418   1.429       .  A
C1417      C1422   1.408       .  A
C1417      H1424   1.077       .  S
C1418      C1419   1.440       .  A
C1419      C1426   1.516       .  S
C1419      C1420   1.403       .  A
C1420      C1421   1.400       .  A
C1420      H1425   1.083       .  S
C1421      C1422   1.401       .  A
C1422      C1423   1.506       .  S
C1423      H1427   1.111       .  S
C1423      H1428   1.109       .  S
C1423      H1429   1.111       .  S
C1426      H1430   1.107       .  S
C1426      H1431   1.102       .  S
C1426      H1432   1.109       .  S
C1433      C1434   1.422       .  A
C1433      C1438   1.394       .  A
C1433      H1440   1.083       .  S
C1434      C1435   1.446       .  A
C1435      C1442   1.511   1_565  S
C1435      C1436   1.416       .  A
C1436      C1437   1.402       .  A
C1436      H1441   1.084       .  S
C1437      C1438   1.413       .  A
C1438      C1439   1.510       .  S
C1439      H1443   1.111       .  S
C1439      H1444   1.106       .  S
C1439      H1445   1.110       .  S
C1442      H1446   1.106       .  S
C1442      H1447   1.104   1_545  S
C1442      H1448   1.111       .  S
C1449      C1450   1.407   1_565  A
C1449      C1454   1.397       .  A
C1449      H1456   1.083       .  S
C1450      C1451   1.406       .  A
C1451      C1458   1.504       .  S
C1451      C1452   1.415       .  A
C1452      C1453   1.427       .  A
C1452      H1457   1.082       .  S
C1453      C1454   1.440   1_545  A
C1454      C1455   1.523       .  S
C1455      H1459   1.111       .  S
C1455      H1460   1.104       .  S
C1455      H1461   1.103       .  S
C1458      H1462   1.110       .  S
C1458      H1463   1.110       .  S
C1458      H1464   1.111       .  S
C1465      C1466   1.419       .  A
C1465      C1470   1.395       .  A
C1465      H1472   1.076       .  S
C1466      C1467   1.438       .  A
C1467      C1474   1.509       .  S
C1467      C1468   1.413       .  A
C1468      C1469   1.402       .  A
C1468      H1473   1.085       .  S
C1469      C1470   1.405       .  A
C1470      C1471   1.511       .  S
C1471      H1475   1.111       .  S
C1471      H1476   1.110       .  S
C1471      H1477   1.108       .  S
C1474      H1478   1.110       .  S
C1474      H1479   1.099       .  S
C1474      H1480   1.111       .  S
C1481      C1482   1.414       .  A
C1481      C1486   1.394       .  A
C1481      H1488   1.076       .  S
C1482      C1483   1.437       .  A
C1483      C1490   1.508       .  S
C1483      C1484   1.418       .  A
C1484      C1485   1.407       .  A
C1484      H1489   1.084       .  S
C1485      C1486   1.415       .  A
C1486      C1487   1.511       .  S
C1487      H1491   1.111       .  S
C1487      H1492   1.109       .  S
C1487      H1493   1.107       .  S
C1490      H1494   1.110       .  S
C1490      H1495   1.099       .  S
C1490      H1496   1.111       .  S
C1497      C1498   1.414       .  A
C1497      C1502   1.414       .  A
C1497      H1504   1.074       .  S
C1498      C1499   1.447       .  A
C1499      C1506   1.515       .  S
C1499      C1500   1.400       .  A
C1500      C1501   1.389       .  A
C1500      H1505   1.086       .  S
C1501      C1502   1.417       .  A
C1502      C1503   1.508       .  S
C1503      H1507   1.111       .  S
C1503      H1508   1.108       .  S
C1503      H1509   1.110   1_554  S
C1506      H1510   1.093       .  S
C1506      H1511   1.109       .  S
C1506      H1512   1.111       .  S
C1513      C1514   1.412   1_554  A
C1513      C1518   1.402       .  A
C1513      H1520   1.076       .  S
C1514      C1515   1.443       .  A
C1515      C1522   1.513       .  S
C1515      C1516   1.410       .  A
C1516      C1517   1.396       .  A
C1516      H1521   1.084       .  S
C1517      C1518   1.423   1_556  A
C1518      C1519   1.513       .  S
C1519      H1523   1.111       .  S
C1519      H1524   1.105       .  S
C1519      H1525   1.110       .  S
C1522      H1526   1.107       .  S
C1522      H1527   1.111       .  S
C1522      H1528   1.107       .  S
C1529      C1530   1.391       .  A
C1529      C1534   1.413       .  A
C1529      H1536   1.085       .  S
C1530      C1531   1.410       .  A
C1531      C1538   1.513       .  S
C1531      C1532   1.397       .  A
C1532      C1533   1.420       .  A
C1532      H1537   1.081   1_554  S
C1533      C1534   1.453       .  A
C1534      C1535   1.514       .  S
C1535      H1539   1.111       .  S
C1535      H1540   1.105       .  S
C1535      H1541   1.102   1_554  S
C1538      H1542   1.110       .  S
C1538      H1543   1.109   1_554  S
C1538      H1544   1.111       .  S
C1545      C1546   1.388       .  A
C1545      C1550   1.410       .  A
C1545      H1552   1.085       .  S
C1546      C1547   1.401       .  A
C1547      C1554   1.506       .  S
C1547      C1548   1.397       .  A
C1548      C1549   1.422       .  A
C1548      H1553   1.080       .  S
C1549      C1550   1.455       .  A
C1550      C1551   1.514       .  S
C1551      H1555   1.111       .  S
C1551      H1556   1.105   1_554  S
C1551      H1557   1.102   1_554  S
C1554      H1558   1.110       .  S
C1554      H1559   1.101       .  S
C1554      H1560   1.111       .  S
C1561      C1562   1.394       .  A
C1561      C1566   1.409       .  A
C1561      H1568   1.084       .  S
C1562      C1563   1.423       .  A
C1563      C1570   1.515       .  S
C1563      C1564   1.399       .  A
C1564      C1565   1.411       .  A
C1564      H1569   1.077       .  S
C1565      C1566   1.446       .  A
C1566      C1567   1.513       .  S
C1567      H1571   1.107       .  S
C1567      H1572   1.104   1_565  S
C1567      H1573   1.111       .  S
C1570      H1574   1.109       .  S
C1570      H1575   1.108       .  S
C1570      H1576   1.111       .  S
C1577      C1578   1.410       .  A
C1577      C1582   1.415       .  A
C1577      H1584   1.084       .  S
C1578      C1579   1.408       .  A
C1579      C1586   1.511       .  S
C1579      C1580   1.399       .  A
C1580      C1581   1.425       .  A
C1580      H1585   1.076       .  S
C1581      C1582   1.430       .  A
C1582      C1583   1.511       .  S
C1583      H1587   1.108       .  S
C1583      H1588   1.104       .  S
C1583      H1589   1.111       .  S
C1586      H1590   1.109       .  S
C1586      H1591   1.110       .  S
C1586      H1592   1.111       .  S
C1593      C1594   1.407       .  A
C1593      C1598   1.419       .  A
C1593      H1600   1.084       .  S
C1594      C1595   1.409       .  A
C1595      C1602   1.512       .  S
C1595      C1596   1.402       .  A
C1596      C1597   1.425       .  A
C1596      H1601   1.073       .  S
C1597      C1598   1.437       .  A
C1598      C1599   1.510       .  S
C1599      H1603   1.111       .  S
C1599      H1604   1.108       .  S
C1599      H1605   1.104       .  S
C1602      H1606   1.109       .  S
C1602      H1607   1.110       .  S
C1602      H1608   1.111       .  S
C1609      C1610   1.390       .  A
C1609      C1614   1.404       .  A
C1609      H1616   1.087       .  S
C1610      C1611   1.416       .  A
C1611      C1618   1.508       .  S
C1611      C1612   1.412       .  A
C1612      C1613   1.413       .  A
C1612      H1617   1.077       .  S
C1613      C1614   1.448       .  A
C1614      C1615   1.514       .  S
C1615      H1619   1.112       .  S
C1615      H1620   1.092       .  S
C1615      H1621   1.109       .  S
C1618      H1622   1.108       .  S
C1618      H1623   1.110       .  S
C1618      H1624   1.111       .  S
C1625      C1626   1.413       .  A
C1625      C1630   1.395       .  A
C1625      H1632   1.076       .  S
C1626      C1627   1.445       .  A
C1627      C1634   1.512       .  S
C1627      C1628   1.412       .  A
C1628      C1629   1.395       .  A
C1628      H1633   1.084       .  S
C1629      C1630   1.419       .  A
C1630      C1631   1.513       .  S
C1631      H1635   1.111       .  S
C1631      H1636   1.109       .  S
C1631      H1637   1.103       .  S
C1634      H1638   1.102       .  S
C1634      H1639   1.104       .  S
C1634      H1640   1.111       .  S
C1641      C1642   1.428       .  A
C1641      C1646   1.405       .  A
C1641      H1648   1.077       .  S
C1642      C1643   1.438       .  A
C1643      C1650   1.509       .  S
C1643      C1644   1.394       .  A
C1644      C1645   1.393       .  A
C1644      H1649   1.087       .  S
C1645      C1646   1.399       .  A
C1646      C1647   1.506       .  S
C1647      H1651   1.111       .  S
C1647      H1652   1.110       .  S
C1647      H1653   1.110       .  S
C1650      H1654   1.110       .  S
C1650      H1655   1.092       .  S
C1650      H1656   1.111       .  S
C1657      C1658   1.427       .  A
C1657      C1662   1.402       .  A
C1657      H1664   1.083       .  S
C1658      C1659   1.445       .  A
C1659      C1666   1.517       .  S
C1659      C1660   1.403       .  A
C1660      C1661   1.394       .  A
C1660      H1665   1.087       .  S
C1661      C1662   1.395       .  A
C1662      C1663   1.505       .  S
C1663      H1667   1.111       .  S
C1663      H1668   1.111       .  S
C1663      H1669   1.110       .  S
C1666      H1670   1.094       .  S
C1666      H1671   1.108       .  S
C1666      H1672   1.112       .  S
C1673      C1674   1.426       .  A
C1673      C1678   1.402       .  A
C1673      H1680   1.079       .  S
C1674      C1675   1.435       .  A
C1675      C1682   1.503       .  S
C1675      C1676   1.405       .  A
C1676      C1677   1.397       .  A
C1676      H1681   1.085       .  S
C1677      C1678   1.401       .  A
C1678      C1679   1.508       .  S
C1679      H1683   1.111       .  S
C1679      H1684   1.110       .  S
C1679      H1685   1.110       .  S
C1682      H1686   1.105       .  S
C1682      H1687   1.100       .  S
C1682      H1688   1.111       .  S
C1689      C1690   1.413       .  A
C1689      C1694   1.395       .  A
C1689      H1696   1.076       .  S
C1690      C1691   1.440       .  A
C1691      C1698   1.512       .  S
C1691      C1692   1.411       .  A
C1692      C1693   1.398       .  A
C1692      H1697   1.085       .  S
C1693      C1694   1.404       .  A
C1694      C1695   1.507       .  S
C1695      H1699   1.111       .  S
C1695      H1700   1.100       .  S
C1695      H1701   1.110       .  S
C1698      H1702   1.098       .  S
C1698      H1703   1.110       .  S
C1698      H1704   1.111       .  S
C1705      C1706   1.391       .  A
C1705      C1710   1.398       .  A
C1705      H1712   1.086       .  S
C1706      C1707   1.412       .  A
C1707      C1714   1.508       .  S
C1707      C1708   1.409       .  A
C1708      C1709   1.417       .  A
C1708      H1713   1.083       .  S
C1709      C1710   1.449       .  A
C1710      C1711   1.517       .  S
C1711      H1715   1.112       .  S
C1711      H1716   1.110       .  S
C1711      H1717   1.089       .  S
C1714      H1718   1.110       .  S
C1714      H1719   1.108       .  S
C1714      H1720   1.111       .  S
C1721      C1722   1.396       .  A
C1721      C1726   1.417       .  A
C1721      H1728   1.084       .  S
C1722      C1723   1.425       .  A
C1723      C1730   1.514       .  S
C1723      C1724   1.405       .  A
C1724      C1725   1.414       .  A
C1724      H1729   1.077       .  S
C1725      C1726   1.447       .  A
C1726      C1727   1.511       .  S
C1727      H1731   1.111       .  S
C1727      H1732   1.102   1_556  S
C1727      H1733   1.104       .  S
C1730      H1734   1.109       .  S
C1730      H1735   1.108       .  S
C1730      H1736   1.111       .  S
C1737      C1738   1.407       .  A
C1737      C1742   1.409       .  A
C1737      H1744   1.084       .  S
C1738      C1739   1.401       .  A
C1739      C1746   1.509       .  S
C1739      C1740   1.400       .  A
C1740      C1741   1.430       .  A
C1740      H1745   1.079       .  S
C1741      C1742   1.435       .  A
C1742      C1743   1.508       .  S
C1743      H1747   1.112       .  S
C1743      H1748   1.109       .  S
C1743      H1749   1.098       .  S
C1746      H1750   1.109       .  S
C1746      H1751   1.111       .  S
C1746      H1752   1.111       .  S
C1753      C1754   1.393       .  A
C1753      C1758   1.400       .  A
C1753      H1760   1.086       .  S
C1754      C1755   1.415       .  A
C1755      C1762   1.507       .  S
C1755      C1756   1.413       .  A
C1756      C1757   1.419       .  A
C1756      H1761   1.083       .  S
C1757      C1758   1.448       .  A
C1758      C1759   1.514       .  S
C1759      H1763   1.112       .  S
C1759      H1764   1.088       .  S
C1759      H1765   1.110       .  S
C1762      H1766   1.110       .  S
C1762      H1767   1.110       .  S
C1762      H1768   1.111       .  S
C1769      C1770   1.420       .  A
C1769      C1774   1.400       .  A
C1769      H1776   1.077       .  S
C1770      C1771   1.443       .  A
C1771      C1778   1.510       .  S
C1771      C1772   1.412       .  A
C1772      C1773   1.392       .  A
C1772      H1777   1.084       .  S
C1773      C1774   1.404       .  A
C1774      C1775   1.509       .  S
C1775      H1779   1.109       .  S
C1775      H1780   1.110       .  S
C1775      H1781   1.111       .  S
C1778      H1782   1.103       .  S
C1778      H1783   1.111       .  S
C1778      H1784   1.104       .  S
C1785      C1786   1.429       .  A
C1785      C1790   1.407       .  A
C1785      H1792   1.075       .  S
C1786      C1787   1.439   1_565  A
C1787      C1794   1.510       .  S
C1787      C1788   1.411       .  A
C1788      C1789   1.400   1_545  A
C1788      H1793   1.085       .  S
C1789      C1790   1.401       .  A
C1790      C1791   1.508       .  S
C1791      H1795   1.111       .  S
C1791      H1796   1.110       .  S
C1791      H1797   1.111       .  S
C1794      H1798   1.107       .  S
C1794      H1799   1.103       .  S
C1794      H1800   1.111       .  S
C1801      C1802   1.436   1_545  A
C1801      C1806   1.408       .  A
C1801      H1808   1.076       .  S
C1802      C1803   1.434       .  A
C1803      C1810   1.509       .  S
C1803      C1804   1.408       .  A
C1804      C1805   1.405   1_565  A
C1804      H1809   1.086       .  S
C1805      C1806   1.402       .  A
C1806      C1807   1.508       .  S
C1807      H1811   1.111       .  S
C1807      H1812   1.110       .  S
C1807      H1813   1.110       .  S
C1810      H1814   1.110       .  S
C1810      H1815   1.094       .  S
C1810      H1816   1.111       .  S
C1817      C1818   1.403       .  A
C1817      C1822   1.411       .  A
C1817      H1824   1.085       .  S
C1818      C1819   1.397       .  A
C1819      C1826   1.506       .  S
C1819      C1820   1.402       .  A
C1820      C1821   1.430       .  A
C1820      H1825   1.079       .  S
C1821      C1822   1.433       .  A
C1822      C1823   1.508       .  S
C1823      H1827   1.109       .  S
C1823      H1828   1.096       .  S
C1823      H1829   1.110       .  S
C1826      H1830   1.110       .  S
C1826      H1831   1.110       .  S
C1826      H1832   1.111       .  S
C1833      C1834   1.405       .  A
C1833      C1838   1.414       .  A
C1833      H1840   1.085       .  S
C1834      C1835   1.418       .  A
C1835      C1842   1.510       .  S
C1835      C1836   1.405       .  A
C1836      C1837   1.416       .  A
C1836      H1841   1.077       .  S
C1837      C1838   1.439       .  A
C1838      C1839   1.512       .  S
C1839      H1843   1.111       .  S
C1839      H1844   1.098       .  S
C1839      H1845   1.110       .  S
C1842      H1846   1.106       .  S
C1842      H1847   1.110       .  S
C1842      H1848   1.111       .  S
C1849      C1850   1.403       .  A
C1849      C1854   1.418       .  A
C1849      H1856   1.084       .  S
C1850      C1851   1.415       .  A
C1851      C1858   1.513       .  S
C1851      C1852   1.394       .  A
C1852      C1853   1.421       .  A
C1852      H1857   1.083       .  S
C1853      C1854   1.446       .  A
C1854      C1855   1.513       .  S
C1855      H1859   1.111       .  S
C1855      H1860   1.106       .  S
C1855      H1861   1.104       .  S
C1858      H1862   1.110       .  S
C1858      H1863   1.110       .  S
C1858      H1864   1.111       .  S
C1865      C1866   1.384       .  A
C1865      C1870   1.405       .  A
C1865      H1872   1.085       .  S
C1866      C1867   1.411       .  A
C1867      C1874   1.509       .  S
C1867      C1868   1.412       .  A
C1868      C1869   1.418       .  A
C1868      H1873   1.076       .  S
C1869      C1870   1.451       .  A
C1870      C1871   1.508       .  S
C1871      H1875   1.111       .  S
C1871      H1876   1.104       .  S
C1871      H1877   1.100       .  S
C1874      H1878   1.107       .  S
C1874      H1879   1.111       .  S
C1874      H1880   1.111       .  S
C1881      C1882   1.401       .  A
C1881      C1886   1.418       .  A
C1881      H1888   1.084       .  S
C1882      C1883   1.420       .  A
C1883      C1890   1.507       .  S
C1883      C1884   1.403       .  A
C1884      C1885   1.412       .  A
C1884      H1889   1.081       .  S
C1885      C1886   1.443       .  A
C1886      C1887   1.510       .  S
C1887      H1891   1.111       .  S
C1887      H1892   1.100       .  S
C1887      H1893   1.108   1_565  S
C1890      H1894   1.107       .  S
C1890      H1895   1.107       .  S
C1890      H1896   1.111       .  S
C1897      C1898   1.399       .  A
C1897      C1902   1.413       .  A
C1897      H1904   1.084       .  S
C1898      C1899   1.421       .  A
C1899      C1906   1.510       .  S
C1899      C1900   1.397       .  A
C1900      C1901   1.410       .  A
C1900      H1905   1.075       .  S
C1901      C1902   1.442       .  A
C1902      C1903   1.513       .  S
C1903      H1907   1.107       .  S
C1903      H1908   1.108   1_556  S
C1903      H1909   1.111       .  S
C1906      H1910   1.106       .  S
C1906      H1911   1.110       .  S
C1906      H1912   1.110       .  S
C1913      C1914   1.405       .  A
C1913      C1918   1.405       .  A
C1913      H1920   1.084       .  S
C1914      C1915   1.404       .  A
C1915      C1922   1.505       .  S
C1915      C1916   1.411       .  A
C1916      C1917   1.429       .  A
C1916      H1921   1.083       .  S
C1917      C1918   1.443       .  A
C1918      C1919   1.520       .  S
C1919      H1923   1.108       .  S
C1919      H1924   1.110       .  S
C1919      H1925   1.090       .  S
C1922      H1926   1.110       .  S
C1922      H1927   1.110       .  S
C1922      H1928   1.111       .  S
